

        *** GPGPU-Sim version 2.1.1b (beta) ***


GPGPU-Sim PTX: __cudaRegisterFunction _Z12reduceKernelPfS_i : 0x404390
GPGPU-Sim PTX: simulation mode 0 (can change with PTX_SIM_MODE_FUNC environment variable:
               1=functional simulation only, 0=detailed performance simulator)
GPGPU-Sim: Configuration options:

-network_mode                           1 # Interconnection network mode
-inter_config_file   icnt_config_quadro_islip.txt # Interconnection network config file
-save_embedded_ptx                      0 # saves ptx files embedded in binary as <n>.ptx
-gpgpu_simd_model                       1 # 0 = no recombination, 1 = post-dominator, 2 = MIMD, 3 = dynamic warp formation
-gpgpu_dram_scheduler                    1 # 0 = fifo (default), 1 = fast ideal
-gpgpu_max_cycle                        0 # terminates gpu simulation early (0 = no limit)
-gpgpu_max_insn                         0 # terminates gpu simulation early (0 = no limit)
-gpgpu_tex_cache:l1             64:64:2:L # per-shader L1 texture cache  (READ-ONLY) config, i.e., {<nsets>:<linesize>:<assoc>:<repl>|none}
-gpgpu_const_cache:l1            64:64:2:L # per-shader L1 constant memory cache  (READ-ONLY) config, i.e., {<nsets>:<linesize>:<assoc>:<repl>|none}
-gpgpu_no_dl1                           1 # no dl1 cache (voids -gpgpu_cache:dl1 option)
-gpgpu_cache:dl1               128:64:4:L # shader L1 data cache config, i.e., {<nsets>:<bsize>:<assoc>:<repl>|none}
-gpgpu_cache:dl2                     NULL # unified banked L2 data cache config, i.e., {<nsets>:<bsize>:<assoc>:<repl>|none}; disabled by default
-gpgpu_perfect_mem                      0 # enable perfect memory mode (no cache miss)
-gpgpu_shader_core_pipeline           1024:32:32 # shader core pipeline config, i.e., {<nthread>:<warpsize>:<pipe_simd_width>}
-gpgpu_shader_registers                16384 # Number of registers per shader core. Limits number of concurrent CTAs. (default 8192)
-gpgpu_shader_cta                       8 # Maximum number of concurrent CTAs in shader (default 8)
-gpgpu_n_shader                        30 # number of shaders in gpu
-gpgpu_n_mem                            8 # number of memory modules (e.g. memory controllers) in gpu
-gpgpu_n_mem_per_ctrlr                    2 # number of memory chips per memory controller
-gpgpu_runtime_stat                  1000 # display runtime statistics such as dram utilization {<freq>:<flag>}
-gpgpu_dwf_heuristic                    0 # DWF scheduling heuristic: 0 = majority, 1 = minority, 2 = timestamp, 3 = pdom priority, 4 = pc-based, 5 = max-heap
-gpgpu_reg_bankconflict                    0 # Check for bank conflict in the pipeline
-gpgpu_dwf_regbk                        1 # Have dwf scheduler to avoid bank conflict
-gpgpu_memlatency_stat                   14 # track and display latency statistics 0x2 enables MC, 0x4 enables queue logs
-gpgpu_mshr_per_thread                    1 # Number of MSHRs per thread
-gpgpu_interwarp_mshr_merge                    6 # interwarp coalescing
-gpgpu_dram_sched_queue_size                   32 # 0 = unlimited (default); # entries per chip
-gpgpu_dram_buswidth                    4 # default = 4 bytes (8 bytes per cycle at DDR)
-gpgpu_dram_burst_length                    4 # Burst length of each DRAM request (default = 4 DDR cycle)
-gpgpu_dram_timing_opt 8:2:8:12:25:10:35:10:7:6 # DRAM timing parameters = {nbk:tCCD:tRRD:tRCD:tRAS:tRP:tRC:CL:WL:tWTR}
-gpgpu_mem_address_mask                    1 # 0 = old addressing mask, 1 = new addressing mask, 2 = new add. mask + flipped bank sel and chip sel bits
-gpgpu_flush_cache                      0 # Flush cache at the end of each kernel call
-gpgpu_l2_readoverwrite                    0 # Prioritize read requests over write requests for L2
-gpgpu_pre_mem_stages                    1 # default = 0 pre-memory pipeline stages
-gpgpu_no_divg_load                     0 # Don't allow divergence on load
-gpgpu_dwf_hw                        32:2 # dynamic warp formation hw config, i.e., {<#LUT_entries>:<associativity>|none}
-gpgpu_thread_swizzling                    0 # Thread Swizzling (1=on, 0=off)
-gpgpu_strict_simd_wrbk                    0 # Applying Strick SIMD WriteBack Stage (1=on, 0=off)
-gpgpu_shmem_size                   16384 # Size of shared memory per shader core (default 16kB)
-gpgpu_shmem_bkconflict                    1 # Turn on bank conflict check for shared memory
-gpgpu_shmem_pipe_speedup                    1 # Number of groups each warp is divided for shared memory bank conflict check
-gpgpu_L2_queue         0:0:0:0:0:0:10:10 # L2 data cache queue length and latency config
-gpgpu_cache_wt_through                    0 # L1 cache become write through (1=on, 0=off)
-gpgpu_deadlock_detect                    1 # Stop the simulation at deadlock (1=on (default), 0=off)
-gpgpu_cache_bkconflict                    1 # Turn on bank conflict check for L1 cache access
-gpgpu_n_cache_bank                     1 # Number of banks in L1 cache, also for memory coalescing stall
-gpgpu_warpdistro_shader                   -1 # Specify which shader core to collect the warp size distribution from
-gpgpu_pdom_sched_type                    8 # 0 = first ready warp found, 1 = random, 8 = loose round robin
-gpgpu_spread_blocks_across_cores                    1 # Spread block-issuing across all cores instead of filling up core by core
-gpgpu_cuda_sim                         1 # use PTX instruction set
-gpgpu_ptx_instruction_classification                    0 # if enabled will classify ptx instruction types per kernel (Max 255 kernels now)
-gpgpu_ptx_sim_mode                     0 # Select between Performance (default) or Functional simulation (1)
-gpgpu_clock_domains 325.0:650.0:650.0:800.0 # Clock Domain Frequencies in MhZ {<Core Clock>:<ICNT Clock>:<L2 Clock>:<DRAM Clock>}
-gpgpu_shmem_port_per_bank                    2 # Number of access processed by a shared memory bank per cycle (default = 2)
-gpgpu_cache_port_per_bank                    2 # Number of access processed by a cache bank per cycle (default = 2)
-gpgpu_const_port_per_bank                    2 # Number of access processed by a constant cache bank per cycle (default = 2)
-gpgpu_cflog_interval                    0 # Interval between each snapshot in control flow logger
-gpgpu_partial_write_mask                    1 # use partial write mask to filter memory requests <1>No extra reads(use this!)<2>extra reads generated for partial chunks
-gpu_concentration                      3 # Number of shader cores per interconnection port (default = 1)
-gpgpu_local_mem_map                    1 # Mapping from local memory space address to simulated GPU physical address space (default = 1)
-pipetrace_out              pipetrace.txt # specifies file to output pipetrace to
-pipetrace                              0 # Turns pipetrace on/off
-gpgpu_mem_addr_mapping dramid@8;00000000.00000000.00000000.00000000.0000RRRR.RRRRRRRR.RRBBBCCC.CCCSSSSS # mapping memory address to dram model {dramid@<start bit>;<memory address map>}
-visualizer_enabled                     1 # Turn on visualizer output (1=On, 0=Off)
-visualizer_outputfile                 NULL # Specifies the output log file for visualizer
-visualizer_zlevel                      6 # Compression level of the visualizer output log (0=no comp, 9=highest)
-enable_ptx_file_line_stats                    1 # Turn on PTX source line statistic profiling. (1 = On)
-ptx_line_stats_filename gpgpu_inst_stats.txt # Output file for PTX source line statistics.
32 30 1024 983040
30720
addr_dec_mask[CHIP]  = 0000000000000700 	high:11 low:8
addr_dec_mask[BK]    = 000000000001c000 	high:17 low:14
addr_dec_mask[ROW]   = 000000007ffe0000 	high:31 low:17
addr_dec_mask[COL]   = 00000000000038ff 	high:14 low:0
addr_dec_mask[BURST] = 000000000000001f 	high:5 low:0
*** Initializing Memory Statistics ***
nodemap
0 
1 2 3 4 
5 6 7 8 
9 10 11 12 
13 14 15 16 
17 GPU performance model initialization complete.
GPGPU-Sim PTX: USING EMBEDDED .ptx files...
GPGPU-Sim PTX: parsing function _Z12reduceKernelPfS_i
GPGPU-Sim PTX: instruction assembly for function '_Z12reduceKernelPfS_i'...   done.
GPGPU-Sim PTX: Finding postdominators for '_Z12reduceKernelPfS_i'...
GPGPU-Sim PTX: Finding immediate postdominators for '_Z12reduceKernelPfS_i'...
GPGPU-Sim PTX: finished parsing EMBEDDED .ptx file _1.ptx
GPGPU-Sim PTX: extracting embedded .ptx to temporary file "_ptx_HKAGpy"
GPGPU-Sim PTX: generating ptxinfo using "ptxas -v _ptx2_B88Vd5 --output-file /dev/null 2> _ptx_HKAGpyinfo"
GPGPU-Sim PTX: Kernel _Z12reduceKernelPfS_i
GPGPU-Sim PTX: removing ptxinfo using "rm -f _ptx_HKAGpy _ptx2_B88Vd5 _ptx_HKAGpyinfo"
GPGPU-Sim PTX: loading global with explicit initializers...  done.
GPGPU-Sim PTX: loading constants with explicit initializers...  done.
GPGPU-Sim PTX: Program parsing completed (max 34 registers used per thread).
CUDA-capable device count: 1
main(): generating input data...
main(): waiting for GPU results...
GPGPU-Sim PTX: allocating 134217728 bytes on GPU starting at address 0x10000000
GPGPU-Sim PTX: cudaMallocing 134217728 bytes starting at 0x10000000..
GPGPU-Sim PTX: allocating 32768 bytes on GPU starting at address 0x18000000
GPGPU-Sim PTX: cudaMallocing 32768 bytes starting at 0x18000000..
GPGPU-Sim PTX: cudaMemcpy(): devPtr = 0x10000000
GPGPU-Sim PTX: copying 134217728 bytes from CPU[0x7f362e532010] to GPU[0x10000000] ...  done.



GPGPU-Sim PTX: cudaLaunch for 0x404390 (mode=performance simulation)
GPGPU-Sim PTX: Launching kernel '_Z12reduceKernelPfS_i' gridDim= (32,1,1) blockDim = (256,1,1); ntuid=1
GPGPU-Sim uArch: clock freqs: 325000000.000000:650000000.000000:650000000.000000:800000000.000000
GPGPU-Sim uArch: clock periods: 0.00000000307692307692:0.00000000153846153846:0.00000000153846153846:0.00000000125000000000
Reconvergence Pairs for _Z12reduceKernelPfS_i
10	26
24	25
25	26
CTA/core = 4, limited by: threads
Shader 0 initializing CTA #0 with hw tids from 0 to 256 @(1,0) shdr->not_completed = 0
Shader 1 initializing CTA #0 with hw tids from 0 to 256 @(1,0) shdr->not_completed = 0
Shader 2 initializing CTA #0 with hw tids from 0 to 256 @(1,0) shdr->not_completed = 0
Shader 3 initializing CTA #0 with hw tids from 0 to 256 @(1,0) shdr->not_completed = 0
Shader 4 initializing CTA #0 with hw tids from 0 to 256 @(1,0) shdr->not_completed = 0
Shader 5 initializing CTA #0 with hw tids from 0 to 256 @(1,0) shdr->not_completed = 0
Shader 6 initializing CTA #0 with hw tids from 0 to 256 @(1,0) shdr->not_completed = 0
Shader 7 initializing CTA #0 with hw tids from 0 to 256 @(1,0) shdr->not_completed = 0
Shader 8 initializing CTA #0 with hw tids from 0 to 256 @(1,0) shdr->not_completed = 0
Shader 9 initializing CTA #0 with hw tids from 0 to 256 @(1,0) shdr->not_completed = 0
Shader 10 initializing CTA #0 with hw tids from 0 to 256 @(1,0) shdr->not_completed = 0
Shader 11 initializing CTA #0 with hw tids from 0 to 256 @(1,0) shdr->not_completed = 0
Shader 12 initializing CTA #0 with hw tids from 0 to 256 @(1,0) shdr->not_completed = 0
Shader 13 initializing CTA #0 with hw tids from 0 to 256 @(1,0) shdr->not_completed = 0
Shader 14 initializing CTA #0 with hw tids from 0 to 256 @(1,0) shdr->not_completed = 0
Shader 15 initializing CTA #0 with hw tids from 0 to 256 @(1,0) shdr->not_completed = 0
Shader 16 initializing CTA #0 with hw tids from 0 to 256 @(1,0) shdr->not_completed = 0
Shader 17 initializing CTA #0 with hw tids from 0 to 256 @(1,0) shdr->not_completed = 0
Shader 18 initializing CTA #0 with hw tids from 0 to 256 @(1,0) shdr->not_completed = 0
Shader 19 initializing CTA #0 with hw tids from 0 to 256 @(1,0) shdr->not_completed = 0
Shader 20 initializing CTA #0 with hw tids from 0 to 256 @(1,0) shdr->not_completed = 0
Shader 21 initializing CTA #0 with hw tids from 0 to 256 @(1,0) shdr->not_completed = 0
Shader 22 initializing CTA #0 with hw tids from 0 to 256 @(1,0) shdr->not_completed = 0
Shader 23 initializing CTA #0 with hw tids from 0 to 256 @(1,0) shdr->not_completed = 0
Shader 24 initializing CTA #0 with hw tids from 0 to 256 @(1,0) shdr->not_completed = 0
Shader 25 initializing CTA #0 with hw tids from 0 to 256 @(1,0) shdr->not_completed = 0
Shader 26 initializing CTA #0 with hw tids from 0 to 256 @(1,0) shdr->not_completed = 0
Shader 27 initializing CTA #0 with hw tids from 0 to 256 @(1,0) shdr->not_completed = 0
Shader 28 initializing CTA #0 with hw tids from 0 to 256 @(1,0) shdr->not_completed = 0
Shader 29 initializing CTA #0 with hw tids from 0 to 256 @(1,0) shdr->not_completed = 0
Shader 0 initializing CTA #1 with hw tids from 256 to 512 @(2,0) shdr->not_completed = 256
Shader 1 initializing CTA #1 with hw tids from 256 to 512 @(2,0) shdr->not_completed = 256
100000 instructions simulated : ctaid=(4,0,0) tid=(63,0,0)
200000 instructions simulated : ctaid=(21,0,0) tid=(191,0,0)
300000 instructions simulated : ctaid=(24,0,0) tid=(191,0,0)
400000 instructions simulated : ctaid=(0,0,0) tid=(191,0,0)
500000 instructions simulated : ctaid=(26,0,0) tid=(191,0,0)
cycles: 1000  inst.: 520880 (ipc=520.9) sim_rate=57875 (inst/sec) elapsed = 0:0:00:09 / Wed May 25 11:34:00 2011
600000 instructions simulated : ctaid=(0,0,0) tid=(95,0,0)
700000 instructions simulated : ctaid=(10,0,0) tid=(223,0,0)
800000 instructions simulated : ctaid=(28,0,0) tid=(159,0,0)
900000 instructions simulated : ctaid=(21,0,0) tid=(127,0,0)
1000000 instructions simulated : ctaid=(31,0,0) tid=(31,0,0)
cycles: 2000  inst.: 996224 (ipc=498.1) sim_rate=76632 (inst/sec) elapsed = 0:0:00:13 / Wed May 25 11:34:04 2011
1100000 instructions simulated : ctaid=(25,0,0) tid=(31,0,0)
1200000 instructions simulated : ctaid=(25,0,0) tid=(63,0,0)
1300000 instructions simulated : ctaid=(12,0,0) tid=(159,0,0)
1400000 instructions simulated : ctaid=(5,0,0) tid=(95,0,0)
cycles: 3000  inst.: 1468640 (ipc=489.5) sim_rate=86390 (inst/sec) elapsed = 0:0:00:17 / Wed May 25 11:34:08 2011
1500000 instructions simulated : ctaid=(2,0,0) tid=(127,0,0)
1600000 instructions simulated : ctaid=(26,0,0) tid=(159,0,0)
1700000 instructions simulated : ctaid=(5,0,0) tid=(31,0,0)
1800000 instructions simulated : ctaid=(16,0,0) tid=(159,0,0)
1900000 instructions simulated : ctaid=(6,0,0) tid=(223,0,0)
cycles: 4000  inst.: 1940768 (ipc=485.2) sim_rate=92417 (inst/sec) elapsed = 0:0:00:21 / Wed May 25 11:34:12 2011
2000000 instructions simulated : ctaid=(10,0,0) tid=(63,0,0)
2100000 instructions simulated : ctaid=(20,0,0) tid=(159,0,0)
2200000 instructions simulated : ctaid=(29,0,0) tid=(31,0,0)
2300000 instructions simulated : ctaid=(0,0,0) tid=(159,0,0)
2400000 instructions simulated : ctaid=(25,0,0) tid=(63,0,0)
cycles: 5000  inst.: 2412000 (ipc=482.4) sim_rate=100500 (inst/sec) elapsed = 0:0:00:24 / Wed May 25 11:34:15 2011
2500000 instructions simulated : ctaid=(5,0,0) tid=(255,0,0)
2600000 instructions simulated : ctaid=(11,0,0) tid=(191,0,0)
2700000 instructions simulated : ctaid=(23,0,0) tid=(95,0,0)
2800000 instructions simulated : ctaid=(27,0,0) tid=(255,0,0)
cycles: 6000  inst.: 2885152 (ipc=480.9) sim_rate=103041 (inst/sec) elapsed = 0:0:00:28 / Wed May 25 11:34:19 2011
2900000 instructions simulated : ctaid=(14,0,0) tid=(255,0,0)
3000000 instructions simulated : ctaid=(22,0,0) tid=(223,0,0)
3100000 instructions simulated : ctaid=(19,0,0) tid=(31,0,0)
3200000 instructions simulated : ctaid=(29,0,0) tid=(127,0,0)
3300000 instructions simulated : ctaid=(2,0,0) tid=(63,0,0)
cycles: 7000  inst.: 3357104 (ipc=479.6) sim_rate=104909 (inst/sec) elapsed = 0:0:00:32 / Wed May 25 11:34:23 2011
3400000 instructions simulated : ctaid=(18,0,0) tid=(191,0,0)
3500000 instructions simulated : ctaid=(28,0,0) tid=(255,0,0)
3600000 instructions simulated : ctaid=(13,0,0) tid=(159,0,0)
3700000 instructions simulated : ctaid=(24,0,0) tid=(127,0,0)
3800000 instructions simulated : ctaid=(9,0,0) tid=(127,0,0)
cycles: 8000  inst.: 3829632 (ipc=478.7) sim_rate=106378 (inst/sec) elapsed = 0:0:00:36 / Wed May 25 11:34:27 2011
3900000 instructions simulated : ctaid=(16,0,0) tid=(159,0,0)
4000000 instructions simulated : ctaid=(4,0,0) tid=(159,0,0)
4100000 instructions simulated : ctaid=(9,0,0) tid=(159,0,0)
4200000 instructions simulated : ctaid=(30,0,0) tid=(127,0,0)
4300000 instructions simulated : ctaid=(14,0,0) tid=(63,0,0)
cycles: 9000  inst.: 4301328 (ipc=477.9) sim_rate=110290 (inst/sec) elapsed = 0:0:00:39 / Wed May 25 11:34:30 2011
4400000 instructions simulated : ctaid=(21,0,0) tid=(31,0,0)
4500000 instructions simulated : ctaid=(17,0,0) tid=(127,0,0)
4600000 instructions simulated : ctaid=(4,0,0) tid=(127,0,0)
4700000 instructions simulated : ctaid=(4,0,0) tid=(223,0,0)
cycles: 10000  inst.: 4773600 (ipc=477.4) sim_rate=111013 (inst/sec) elapsed = 0:0:00:43 / Wed May 25 11:34:34 2011
4800000 instructions simulated : ctaid=(10,0,0) tid=(223,0,0)
4900000 instructions simulated : ctaid=(27,0,0) tid=(159,0,0)
5000000 instructions simulated : ctaid=(26,0,0) tid=(95,0,0)
5100000 instructions simulated : ctaid=(17,0,0) tid=(255,0,0)
5200000 instructions simulated : ctaid=(19,0,0) tid=(159,0,0)
cycles: 11000  inst.: 5245632 (ipc=476.9) sim_rate=111609 (inst/sec) elapsed = 0:0:00:47 / Wed May 25 11:34:38 2011
5300000 instructions simulated : ctaid=(0,0,0) tid=(255,0,0)
5400000 instructions simulated : ctaid=(23,0,0) tid=(159,0,0)
5500000 instructions simulated : ctaid=(21,0,0) tid=(159,0,0)
5600000 instructions simulated : ctaid=(3,0,0) tid=(31,0,0)
5700000 instructions simulated : ctaid=(29,0,0) tid=(255,0,0)
cycles: 12000  inst.: 5717712 (ipc=476.5) sim_rate=112112 (inst/sec) elapsed = 0:0:00:51 / Wed May 25 11:34:42 2011
5800000 instructions simulated : ctaid=(4,0,0) tid=(255,0,0)
5900000 instructions simulated : ctaid=(19,0,0) tid=(191,0,0)
6000000 instructions simulated : ctaid=(14,0,0) tid=(31,0,0)
6100000 instructions simulated : ctaid=(11,0,0) tid=(191,0,0)
cycles: 13000  inst.: 6188992 (ipc=476.1) sim_rate=114610 (inst/sec) elapsed = 0:0:00:54 / Wed May 25 11:34:45 2011
6200000 instructions simulated : ctaid=(16,0,0) tid=(255,0,0)
6300000 instructions simulated : ctaid=(29,0,0) tid=(159,0,0)
6400000 instructions simulated : ctaid=(12,0,0) tid=(255,0,0)
6500000 instructions simulated : ctaid=(15,0,0) tid=(191,0,0)
6600000 instructions simulated : ctaid=(7,0,0) tid=(63,0,0)
cycles: 14000  inst.: 6661616 (ipc=475.8) sim_rate=114855 (inst/sec) elapsed = 0:0:00:58 / Wed May 25 11:34:49 2011
6700000 instructions simulated : ctaid=(23,0,0) tid=(159,0,0)
6800000 instructions simulated : ctaid=(24,0,0) tid=(127,0,0)
6900000 instructions simulated : ctaid=(11,0,0) tid=(159,0,0)
7000000 instructions simulated : ctaid=(25,0,0) tid=(63,0,0)
7100000 instructions simulated : ctaid=(29,0,0) tid=(223,0,0)
cycles: 15000  inst.: 7134096 (ipc=475.6) sim_rate=115066 (inst/sec) elapsed = 0:0:01:02 / Wed May 25 11:34:53 2011
7200000 instructions simulated : ctaid=(26,0,0) tid=(159,0,0)
7300000 instructions simulated : ctaid=(28,0,0) tid=(127,0,0)
7400000 instructions simulated : ctaid=(12,0,0) tid=(159,0,0)
7500000 instructions simulated : ctaid=(17,0,0) tid=(63,0,0)
7600000 instructions simulated : ctaid=(27,0,0) tid=(255,0,0)
cycles: 16000  inst.: 7606480 (ipc=475.4) sim_rate=115249 (inst/sec) elapsed = 0:0:01:06 / Wed May 25 11:34:57 2011
7700000 instructions simulated : ctaid=(16,0,0) tid=(127,0,0)
7800000 instructions simulated : ctaid=(11,0,0) tid=(159,0,0)
7900000 instructions simulated : ctaid=(6,0,0) tid=(159,0,0)
8000000 instructions simulated : ctaid=(12,0,0) tid=(223,0,0)
cycles: 17000  inst.: 8077648 (ipc=475.2) sim_rate=117067 (inst/sec) elapsed = 0:0:01:09 / Wed May 25 11:35:00 2011
8100000 instructions simulated : ctaid=(26,0,0) tid=(159,0,0)
8200000 instructions simulated : ctaid=(3,0,0) tid=(127,0,0)
8300000 instructions simulated : ctaid=(27,0,0) tid=(127,0,0)
8400000 instructions simulated : ctaid=(12,0,0) tid=(31,0,0)
8500000 instructions simulated : ctaid=(3,0,0) tid=(31,0,0)
cycles: 18000  inst.: 8549728 (ipc=475.0) sim_rate=117119 (inst/sec) elapsed = 0:0:01:13 / Wed May 25 11:35:04 2011
8600000 instructions simulated : ctaid=(15,0,0) tid=(95,0,0)
8700000 instructions simulated : ctaid=(13,0,0) tid=(31,0,0)
8800000 instructions simulated : ctaid=(29,0,0) tid=(255,0,0)
8900000 instructions simulated : ctaid=(13,0,0) tid=(95,0,0)
9000000 instructions simulated : ctaid=(20,0,0) tid=(255,0,0)
cycles: 19000  inst.: 9022336 (ipc=474.9) sim_rate=117173 (inst/sec) elapsed = 0:0:01:17 / Wed May 25 11:35:08 2011
9100000 instructions simulated : ctaid=(12,0,0) tid=(159,0,0)
9200000 instructions simulated : ctaid=(4,0,0) tid=(223,0,0)
9300000 instructions simulated : ctaid=(9,0,0) tid=(31,0,0)
9400000 instructions simulated : ctaid=(9,0,0) tid=(63,0,0)
9500000 instructions simulated : ctaid=(10,0,0) tid=(31,0,0)
cycles: 20000  inst.: 9493872 (ipc=474.7) sim_rate=117208 (inst/sec) elapsed = 0:0:01:21 / Wed May 25 11:35:12 2011
9600000 instructions simulated : ctaid=(5,0,0) tid=(127,0,0)
9700000 instructions simulated : ctaid=(30,0,0) tid=(223,0,0)
9800000 instructions simulated : ctaid=(1,0,0) tid=(95,0,0)
9900000 instructions simulated : ctaid=(15,0,0) tid=(255,0,0)
cycles: 21000  inst.: 9966336 (ipc=474.6) sim_rate=117251 (inst/sec) elapsed = 0:0:01:25 / Wed May 25 11:35:16 2011
10000000 instructions simulated : ctaid=(15,0,0) tid=(159,0,0)
10100000 instructions simulated : ctaid=(27,0,0) tid=(63,0,0)
10200000 instructions simulated : ctaid=(24,0,0) tid=(63,0,0)
10300000 instructions simulated : ctaid=(25,0,0) tid=(31,0,0)
10400000 instructions simulated : ctaid=(30,0,0) tid=(127,0,0)
cycles: 22000  inst.: 10439024 (ipc=474.5) sim_rate=117292 (inst/sec) elapsed = 0:0:01:29 / Wed May 25 11:35:20 2011
10500000 instructions simulated : ctaid=(1,0,0) tid=(31,0,0)
10600000 instructions simulated : ctaid=(28,0,0) tid=(223,0,0)
10700000 instructions simulated : ctaid=(28,0,0) tid=(31,0,0)
10800000 instructions simulated : ctaid=(6,0,0) tid=(223,0,0)
10900000 instructions simulated : ctaid=(22,0,0) tid=(223,0,0)
cycles: 23000  inst.: 10911040 (ipc=474.4) sim_rate=117323 (inst/sec) elapsed = 0:0:01:33 / Wed May 25 11:35:24 2011
11000000 instructions simulated : ctaid=(29,0,0) tid=(31,0,0)
11100000 instructions simulated : ctaid=(11,0,0) tid=(63,0,0)
11200000 instructions simulated : ctaid=(18,0,0) tid=(63,0,0)
11300000 instructions simulated : ctaid=(14,0,0) tid=(127,0,0)
cycles: 24000  inst.: 11382992 (ipc=474.3) sim_rate=117350 (inst/sec) elapsed = 0:0:01:37 / Wed May 25 11:35:28 2011
11400000 instructions simulated : ctaid=(8,0,0) tid=(159,0,0)
11500000 instructions simulated : ctaid=(8,0,0) tid=(159,0,0)
11600000 instructions simulated : ctaid=(0,0,0) tid=(63,0,0)
11700000 instructions simulated : ctaid=(18,0,0) tid=(159,0,0)
11800000 instructions simulated : ctaid=(23,0,0) tid=(159,0,0)
cycles: 25000  inst.: 11855328 (ipc=474.2) sim_rate=118553 (inst/sec) elapsed = 0:0:01:40 / Wed May 25 11:35:31 2011
11900000 instructions simulated : ctaid=(30,0,0) tid=(223,0,0)
12000000 instructions simulated : ctaid=(9,0,0) tid=(31,0,0)
12100000 instructions simulated : ctaid=(12,0,0) tid=(31,0,0)
12200000 instructions simulated : ctaid=(11,0,0) tid=(63,0,0)
12300000 instructions simulated : ctaid=(11,0,0) tid=(63,0,0)
cycles: 26000  inst.: 12327088 (ipc=474.1) sim_rate=118529 (inst/sec) elapsed = 0:0:01:44 / Wed May 25 11:35:35 2011
12400000 instructions simulated : ctaid=(28,0,0) tid=(31,0,0)
12500000 instructions simulated : ctaid=(14,0,0) tid=(159,0,0)
12600000 instructions simulated : ctaid=(13,0,0) tid=(127,0,0)
12700000 instructions simulated : ctaid=(21,0,0) tid=(255,0,0)
12800000 instructions simulated : ctaid=(2,0,0) tid=(159,0,0)
cycles: 27000  inst.: 12799104 (ipc=474.0) sim_rate=118510 (inst/sec) elapsed = 0:0:01:48 / Wed May 25 11:35:39 2011
12900000 instructions simulated : ctaid=(21,0,0) tid=(223,0,0)
13000000 instructions simulated : ctaid=(7,0,0) tid=(255,0,0)
13100000 instructions simulated : ctaid=(1,0,0) tid=(255,0,0)
13200000 instructions simulated : ctaid=(4,0,0) tid=(63,0,0)
cycles: 28000  inst.: 13271280 (ipc=474.0) sim_rate=118493 (inst/sec) elapsed = 0:0:01:52 / Wed May 25 11:35:43 2011
13300000 instructions simulated : ctaid=(16,0,0) tid=(31,0,0)
13400000 instructions simulated : ctaid=(6,0,0) tid=(255,0,0)
13500000 instructions simulated : ctaid=(20,0,0) tid=(95,0,0)
13600000 instructions simulated : ctaid=(22,0,0) tid=(63,0,0)
13700000 instructions simulated : ctaid=(9,0,0) tid=(159,0,0)
cycles: 29000  inst.: 13743328 (ipc=473.9) sim_rate=118476 (inst/sec) elapsed = 0:0:01:56 / Wed May 25 11:35:47 2011
13800000 instructions simulated : ctaid=(14,0,0) tid=(255,0,0)
13900000 instructions simulated : ctaid=(26,0,0) tid=(159,0,0)
14000000 instructions simulated : ctaid=(7,0,0) tid=(255,0,0)
14100000 instructions simulated : ctaid=(22,0,0) tid=(255,0,0)
14200000 instructions simulated : ctaid=(18,0,0) tid=(223,0,0)
cycles: 30000  inst.: 14215760 (ipc=473.9) sim_rate=119460 (inst/sec) elapsed = 0:0:01:59 / Wed May 25 11:35:50 2011
14300000 instructions simulated : ctaid=(25,0,0) tid=(191,0,0)
14400000 instructions simulated : ctaid=(31,0,0) tid=(255,0,0)
14500000 instructions simulated : ctaid=(26,0,0) tid=(223,0,0)
14600000 instructions simulated : ctaid=(19,0,0) tid=(223,0,0)
cycles: 31000  inst.: 14687488 (ipc=473.8) sim_rate=119410 (inst/sec) elapsed = 0:0:02:03 / Wed May 25 11:35:54 2011
14700000 instructions simulated : ctaid=(10,0,0) tid=(63,0,0)
14800000 instructions simulated : ctaid=(29,0,0) tid=(159,0,0)
14900000 instructions simulated : ctaid=(29,0,0) tid=(127,0,0)
15000000 instructions simulated : ctaid=(23,0,0) tid=(95,0,0)
15100000 instructions simulated : ctaid=(6,0,0) tid=(127,0,0)
cycles: 32000  inst.: 15159408 (ipc=473.7) sim_rate=119365 (inst/sec) elapsed = 0:0:02:07 / Wed May 25 11:35:58 2011
15200000 instructions simulated : ctaid=(29,0,0) tid=(255,0,0)
15300000 instructions simulated : ctaid=(13,0,0) tid=(31,0,0)
15400000 instructions simulated : ctaid=(27,0,0) tid=(223,0,0)
15500000 instructions simulated : ctaid=(20,0,0) tid=(95,0,0)
15600000 instructions simulated : ctaid=(11,0,0) tid=(223,0,0)
cycles: 33000  inst.: 15630560 (ipc=473.7) sim_rate=119317 (inst/sec) elapsed = 0:0:02:11 / Wed May 25 11:36:02 2011
15700000 instructions simulated : ctaid=(11,0,0) tid=(63,0,0)
15800000 instructions simulated : ctaid=(18,0,0) tid=(255,0,0)
15900000 instructions simulated : ctaid=(15,0,0) tid=(255,0,0)
16000000 instructions simulated : ctaid=(14,0,0) tid=(159,0,0)
16100000 instructions simulated : ctaid=(1,0,0) tid=(255,0,0)
cycles: 34000  inst.: 16104176 (ipc=473.7) sim_rate=120180 (inst/sec) elapsed = 0:0:02:14 / Wed May 25 11:36:05 2011
16200000 instructions simulated : ctaid=(10,0,0) tid=(255,0,0)
16300000 instructions simulated : ctaid=(23,0,0) tid=(127,0,0)
16400000 instructions simulated : ctaid=(25,0,0) tid=(191,0,0)
16500000 instructions simulated : ctaid=(7,0,0) tid=(95,0,0)
cycles: 35000  inst.: 16575584 (ipc=473.6) sim_rate=120112 (inst/sec) elapsed = 0:0:02:18 / Wed May 25 11:36:09 2011
16600000 instructions simulated : ctaid=(8,0,0) tid=(191,0,0)
16700000 instructions simulated : ctaid=(24,0,0) tid=(255,0,0)
16800000 instructions simulated : ctaid=(18,0,0) tid=(255,0,0)
16900000 instructions simulated : ctaid=(5,0,0) tid=(255,0,0)
17000000 instructions simulated : ctaid=(25,0,0) tid=(63,0,0)
cycles: 36000  inst.: 17046960 (ipc=473.5) sim_rate=120049 (inst/sec) elapsed = 0:0:02:22 / Wed May 25 11:36:13 2011
17100000 instructions simulated : ctaid=(1,0,0) tid=(223,0,0)
17200000 instructions simulated : ctaid=(16,0,0) tid=(191,0,0)
17300000 instructions simulated : ctaid=(19,0,0) tid=(63,0,0)
17400000 instructions simulated : ctaid=(29,0,0) tid=(255,0,0)
17500000 instructions simulated : ctaid=(8,0,0) tid=(223,0,0)
cycles: 37000  inst.: 17519536 (ipc=473.5) sim_rate=119996 (inst/sec) elapsed = 0:0:02:26 / Wed May 25 11:36:17 2011
17600000 instructions simulated : ctaid=(27,0,0) tid=(31,0,0)
17700000 instructions simulated : ctaid=(25,0,0) tid=(223,0,0)
17800000 instructions simulated : ctaid=(28,0,0) tid=(255,0,0)
17900000 instructions simulated : ctaid=(7,0,0) tid=(159,0,0)
18000000 instructions simulated : ctaid=(27,0,0) tid=(159,0,0)
cycles: 38000  inst.: 17992752 (ipc=473.5) sim_rate=119951 (inst/sec) elapsed = 0:0:02:30 / Wed May 25 11:36:21 2011
18100000 instructions simulated : ctaid=(5,0,0) tid=(95,0,0)
18200000 instructions simulated : ctaid=(22,0,0) tid=(191,0,0)
18300000 instructions simulated : ctaid=(25,0,0) tid=(63,0,0)
18400000 instructions simulated : ctaid=(3,0,0) tid=(63,0,0)
cycles: 39000  inst.: 18464656 (ipc=473.5) sim_rate=120684 (inst/sec) elapsed = 0:0:02:33 / Wed May 25 11:36:24 2011
18500000 instructions simulated : ctaid=(2,0,0) tid=(255,0,0)
18600000 instructions simulated : ctaid=(10,0,0) tid=(223,0,0)
18700000 instructions simulated : ctaid=(4,0,0) tid=(191,0,0)
18800000 instructions simulated : ctaid=(14,0,0) tid=(63,0,0)
18900000 instructions simulated : ctaid=(31,0,0) tid=(255,0,0)
cycles: 40000  inst.: 18936656 (ipc=473.4) sim_rate=120615 (inst/sec) elapsed = 0:0:02:37 / Wed May 25 11:36:28 2011
19000000 instructions simulated : ctaid=(5,0,0) tid=(95,0,0)
19100000 instructions simulated : ctaid=(24,0,0) tid=(63,0,0)
19200000 instructions simulated : ctaid=(6,0,0) tid=(127,0,0)
19300000 instructions simulated : ctaid=(3,0,0) tid=(159,0,0)
19400000 instructions simulated : ctaid=(26,0,0) tid=(95,0,0)
cycles: 41000  inst.: 19408528 (ipc=473.4) sim_rate=120549 (inst/sec) elapsed = 0:0:02:41 / Wed May 25 11:36:32 2011
19500000 instructions simulated : ctaid=(5,0,0) tid=(191,0,0)
19600000 instructions simulated : ctaid=(8,0,0) tid=(31,0,0)
19700000 instructions simulated : ctaid=(12,0,0) tid=(127,0,0)
19800000 instructions simulated : ctaid=(16,0,0) tid=(95,0,0)
cycles: 42000  inst.: 19880880 (ipc=473.4) sim_rate=120490 (inst/sec) elapsed = 0:0:02:45 / Wed May 25 11:36:36 2011
19900000 instructions simulated : ctaid=(9,0,0) tid=(191,0,0)
20000000 instructions simulated : ctaid=(8,0,0) tid=(95,0,0)