

        *** GPGPU-Sim version 2.1.1b (beta) ***


GPGPU-Sim PTX: __cudaRegisterFunction _Z10testKernelPi : 0x403e50
GPGPU-Sim PTX: simulation mode 0 (can change with PTX_SIM_MODE_FUNC environment variable:
               1=functional simulation only, 0=detailed performance simulator)
GPGPU-Sim: Configuration options:

-network_mode                           1 # Interconnection network mode
-inter_config_file   icnt_config_quadro_islip.txt # Interconnection network config file
-save_embedded_ptx                      0 # saves ptx files embedded in binary as <n>.ptx
-gpgpu_simd_model                       1 # 0 = no recombination, 1 = post-dominator, 2 = MIMD, 3 = dynamic warp formation
-gpgpu_dram_scheduler                    1 # 0 = fifo (default), 1 = fast ideal
-gpgpu_max_cycle                        0 # terminates gpu simulation early (0 = no limit)
-gpgpu_max_insn                         0 # terminates gpu simulation early (0 = no limit)
-gpgpu_tex_cache:l1             64:64:2:L # per-shader L1 texture cache  (READ-ONLY) config, i.e., {<nsets>:<linesize>:<assoc>:<repl>|none}
-gpgpu_const_cache:l1            64:64:2:L # per-shader L1 constant memory cache  (READ-ONLY) config, i.e., {<nsets>:<linesize>:<assoc>:<repl>|none}
-gpgpu_no_dl1                           1 # no dl1 cache (voids -gpgpu_cache:dl1 option)
-gpgpu_cache:dl1               128:64:4:L # shader L1 data cache config, i.e., {<nsets>:<bsize>:<assoc>:<repl>|none}
-gpgpu_cache:dl2                     NULL # unified banked L2 data cache config, i.e., {<nsets>:<bsize>:<assoc>:<repl>|none}; disabled by default
-gpgpu_perfect_mem                      0 # enable perfect memory mode (no cache miss)
-gpgpu_shader_core_pipeline           1024:32:32 # shader core pipeline config, i.e., {<nthread>:<warpsize>:<pipe_simd_width>}
-gpgpu_shader_registers                16384 # Number of registers per shader core. Limits number of concurrent CTAs. (default 8192)
-gpgpu_shader_cta                       8 # Maximum number of concurrent CTAs in shader (default 8)
-gpgpu_n_shader                        16 # number of shaders in gpu
-gpgpu_n_mem                            8 # number of memory modules (e.g. memory controllers) in gpu
-gpgpu_n_mem_per_ctrlr                    2 # number of memory chips per memory controller
-gpgpu_runtime_stat                  1000 # display runtime statistics such as dram utilization {<freq>:<flag>}
-gpgpu_dwf_heuristic                    0 # DWF scheduling heuristic: 0 = majority, 1 = minority, 2 = timestamp, 3 = pdom priority, 4 = pc-based, 5 = max-heap
-gpgpu_reg_bankconflict                    0 # Check for bank conflict in the pipeline
-gpgpu_dwf_regbk                        1 # Have dwf scheduler to avoid bank conflict
-gpgpu_memlatency_stat                   14 # track and display latency statistics 0x2 enables MC, 0x4 enables queue logs
-gpgpu_mshr_per_thread                    1 # Number of MSHRs per thread
-gpgpu_interwarp_mshr_merge                    6 # interwarp coalescing
-gpgpu_dram_sched_queue_size                   32 # 0 = unlimited (default); # entries per chip
-gpgpu_dram_buswidth                    4 # default = 4 bytes (8 bytes per cycle at DDR)
-gpgpu_dram_burst_length                    4 # Burst length of each DRAM request (default = 4 DDR cycle)
-gpgpu_dram_timing_opt 8:2:8:12:25:10:35:10:7:6 # DRAM timing parameters = {nbk:tCCD:tRRD:tRCD:tRAS:tRP:tRC:CL:WL:tWTR}
-gpgpu_mem_address_mask                    1 # 0 = old addressing mask, 1 = new addressing mask, 2 = new add. mask + flipped bank sel and chip sel bits
-gpgpu_flush_cache                      0 # Flush cache at the end of each kernel call
-gpgpu_l2_readoverwrite                    0 # Prioritize read requests over write requests for L2
-gpgpu_pre_mem_stages                    1 # default = 0 pre-memory pipeline stages
-gpgpu_no_divg_load                     0 # Don't allow divergence on load
-gpgpu_dwf_hw                        32:2 # dynamic warp formation hw config, i.e., {<#LUT_entries>:<associativity>|none}
-gpgpu_thread_swizzling                    0 # Thread Swizzling (1=on, 0=off)
-gpgpu_strict_simd_wrbk                    0 # Applying Strick SIMD WriteBack Stage (1=on, 0=off)
-gpgpu_shmem_size                   16384 # Size of shared memory per shader core (default 16kB)
-gpgpu_shmem_bkconflict                    1 # Turn on bank conflict check for shared memory
-gpgpu_shmem_pipe_speedup                    1 # Number of groups each warp is divided for shared memory bank conflict check
-gpgpu_L2_queue         0:0:0:0:0:0:10:10 # L2 data cache queue length and latency config
-gpgpu_cache_wt_through                    0 # L1 cache become write through (1=on, 0=off)
-gpgpu_deadlock_detect                    1 # Stop the simulation at deadlock (1=on (default), 0=off)
-gpgpu_cache_bkconflict                    1 # Turn on bank conflict check for L1 cache access
-gpgpu_n_cache_bank                     1 # Number of banks in L1 cache, also for memory coalescing stall
-gpgpu_warpdistro_shader                   -1 # Specify which shader core to collect the warp size distribution from
-gpgpu_pdom_sched_type                    8 # 0 = first ready warp found, 1 = random, 8 = loose round robin
-gpgpu_spread_blocks_across_cores                    1 # Spread block-issuing across all cores instead of filling up core by core
-gpgpu_cuda_sim                         1 # use PTX instruction set
-gpgpu_ptx_instruction_classification                    0 # if enabled will classify ptx instruction types per kernel (Max 255 kernels now)
-gpgpu_ptx_sim_mode                     0 # Select between Performance (default) or Functional simulation (1)
-gpgpu_clock_domains 300.0:600.0:600.0:1000.0 # Clock Domain Frequencies in MhZ {<Core Clock>:<ICNT Clock>:<L2 Clock>:<DRAM Clock>}
-gpgpu_shmem_port_per_bank                    2 # Number of access processed by a shared memory bank per cycle (default = 2)
-gpgpu_cache_port_per_bank                    2 # Number of access processed by a cache bank per cycle (default = 2)
-gpgpu_const_port_per_bank                    2 # Number of access processed by a constant cache bank per cycle (default = 2)
-gpgpu_cflog_interval                    0 # Interval between each snapshot in control flow logger
-gpgpu_partial_write_mask                    1 # use partial write mask to filter memory requests <1>No extra reads(use this!)<2>extra reads generated for partial chunks
-gpu_concentration                      2 # Number of shader cores per interconnection port (default = 1)
-gpgpu_local_mem_map                    1 # Mapping from local memory space address to simulated GPU physical address space (default = 1)
-pipetrace_out              pipetrace.txt # specifies file to output pipetrace to
-pipetrace                              0 # Turns pipetrace on/off
-gpgpu_mem_addr_mapping dramid@8;00000000.00000000.00000000.00000000.0000RRRR.RRRRRRRR.RRBBBCCC.CCCSSSSS # mapping memory address to dram model {dramid@<start bit>;<memory address map>}
-visualizer_enabled                     1 # Turn on visualizer output (1=On, 0=Off)
-visualizer_outputfile                 NULL # Specifies the output log file for visualizer
-visualizer_zlevel                      6 # Compression level of the visualizer output log (0=no comp, 9=highest)
-enable_ptx_file_line_stats                    1 # Turn on PTX source line statistic profiling. (1 = On)
-ptx_line_stats_filename gpgpu_inst_stats.txt # Output file for PTX source line statistics.
32 16 1024 524288
16384
addr_dec_mask[CHIP]  = 0000000000000700 	high:11 low:8
addr_dec_mask[BK]    = 000000000001c000 	high:17 low:14
addr_dec_mask[ROW]   = 000000007ffe0000 	high:31 low:17
addr_dec_mask[COL]   = 00000000000038ff 	high:14 low:0
addr_dec_mask[BURST] = 000000000000001f 	high:5 low:0
*** Initializing Memory Statistics ***
nodemap
0 
1 2 3 4 
5 6 7 8 
9 10 11 12 
13 14 15 16 
17 GPU performance model initialization complete.
GPGPU-Sim PTX: USING EMBEDDED .ptx files...
GPGPU-Sim PTX: parsing function _Z10testKernelPi
GPGPU-Sim PTX: instruction assembly for function '_Z10testKernelPi'...   done.
GPGPU-Sim PTX: Finding postdominators for '_Z10testKernelPi'...
GPGPU-Sim PTX: Finding immediate postdominators for '_Z10testKernelPi'...
GPGPU-Sim PTX: finished parsing EMBEDDED .ptx file _1.ptx
GPGPU-Sim PTX: extracting embedded .ptx to temporary file "_ptx_uNkWSx"
GPGPU-Sim PTX: generating ptxinfo using "ptxas -v _ptx2_TwzJYn --output-file /dev/null 2> _ptx_uNkWSxinfo"
GPGPU-Sim PTX: Kernel _Z10testKernelPi
GPGPU-Sim PTX: removing ptxinfo using "rm -f _ptx_uNkWSx _ptx2_TwzJYn _ptx_uNkWSxinfo"
GPGPU-Sim PTX: loading global with explicit initializers...  done.
GPGPU-Sim PTX: loading constants with explicit initializers...  done.
GPGPU-Sim PTX: Program parsing completed (max 32 registers used per thread).
Using Device 0: "GPGPU-Sim_v2.1.1b (beta)"
GPGPU-Sim PTX: allocating 44 bytes on GPU starting at address 0x10000000
GPGPU-Sim PTX: cudaMallocing 44 bytes starting at 0x10000000..
GPGPU-Sim PTX: cudaMemcpy(): devPtr = 0x10000000
GPGPU-Sim PTX: copying 44 bytes from CPU[0x3519950] to GPU[0x10000000] ...  done.



GPGPU-Sim PTX: cudaLaunch for 0x403e50 (mode=performance simulation)
GPGPU-Sim PTX: Launching kernel '_Z10testKernelPi' gridDim= (64,1,1) blockDim = (256,1,1); ntuid=1
GPGPU-Sim uArch: clock freqs: 300000000.000000:600000000.000000:600000000.000000:1000000000.000000
GPGPU-Sim uArch: clock periods: 0.00000000333333333333:0.00000000166666666667:0.00000000166666666667:0.00000000100000000000
Reconvergence Pairs for _Z10testKernelPi
CTA/core = 4, limited by: threads
Shader 0 initializing CTA #0 with hw tids from 0 to 256 @(1,0) shdr->not_completed = 0
Shader 1 initializing CTA #0 with hw tids from 0 to 256 @(1,0) shdr->not_completed = 0
Shader 2 initializing CTA #0 with hw tids from 0 to 256 @(1,0) shdr->not_completed = 0
Shader 3 initializing CTA #0 with hw tids from 0 to 256 @(1,0) shdr->not_completed = 0
Shader 4 initializing CTA #0 with hw tids from 0 to 256 @(1,0) shdr->not_completed = 0
Shader 5 initializing CTA #0 with hw tids from 0 to 256 @(1,0) shdr->not_completed = 0
Shader 6 initializing CTA #0 with hw tids from 0 to 256 @(1,0) shdr->not_completed = 0
Shader 7 initializing CTA #0 with hw tids from 0 to 256 @(1,0) shdr->not_completed = 0
Shader 8 initializing CTA #0 with hw tids from 0 to 256 @(1,0) shdr->not_completed = 0
Shader 9 initializing CTA #0 with hw tids from 0 to 256 @(1,0) shdr->not_completed = 0
Shader 10 initializing CTA #0 with hw tids from 0 to 256 @(1,0) shdr->not_completed = 0
Shader 11 initializing CTA #0 with hw tids from 0 to 256 @(1,0) shdr->not_completed = 0
Shader 12 initializing CTA #0 with hw tids from 0 to 256 @(1,0) shdr->not_completed = 0
Shader 13 initializing CTA #0 with hw tids from 0 to 256 @(1,0) shdr->not_completed = 0
Shader 14 initializing CTA #0 with hw tids from 0 to 256 @(1,0) shdr->not_completed = 0
Shader 15 initializing CTA #0 with hw tids from 0 to 256 @(1,0) shdr->not_completed = 0
Shader 0 initializing CTA #1 with hw tids from 256 to 512 @(2,0) shdr->not_completed = 256
Shader 1 initializing CTA #1 with hw tids from 256 to 512 @(2,0) shdr->not_completed = 256
Shader 2 initializing CTA #1 with hw tids from 256 to 512 @(2,0) shdr->not_completed = 256
Shader 3 initializing CTA #1 with hw tids from 256 to 512 @(2,0) shdr->not_completed = 256
Shader 4 initializing CTA #1 with hw tids from 256 to 512 @(2,0) shdr->not_completed = 256
Shader 5 initializing CTA #1 with hw tids from 256 to 512 @(2,0) shdr->not_completed = 256
Shader 6 initializing CTA #1 with hw tids from 256 to 512 @(2,0) shdr->not_completed = 256
Shader 7 initializing CTA #1 with hw tids from 256 to 512 @(2,0) shdr->not_completed = 256
Shader 8 initializing CTA #1 with hw tids from 256 to 512 @(2,0) shdr->not_completed = 256
Shader 9 initializing CTA #1 with hw tids from 256 to 512 @(2,0) shdr->not_completed = 256
Shader 10 initializing CTA #1 with hw tids from 256 to 512 @(2,0) shdr->not_completed = 256
Shader 11 initializing CTA #1 with hw tids from 256 to 512 @(2,0) shdr->not_completed = 256
Shader 12 initializing CTA #1 with hw tids from 256 to 512 @(2,0) shdr->not_completed = 256
Shader 13 initializing CTA #1 with hw tids from 256 to 512 @(2,0) shdr->not_completed = 256
Shader 14 initializing CTA #1 with hw tids from 256 to 512 @(2,0) shdr->not_completed = 256
Shader 15 initializing CTA #1 with hw tids from 256 to 512 @(2,0) shdr->not_completed = 256
Shader 0 initializing CTA #2 with hw tids from 512 to 768 @(3,0) shdr->not_completed = 512
Shader 1 initializing CTA #2 with hw tids from 512 to 768 @(3,0) shdr->not_completed = 512
Shader 2 initializing CTA #2 with hw tids from 512 to 768 @(3,0) shdr->not_completed = 512
Shader 3 initializing CTA #2 with hw tids from 512 to 768 @(3,0) shdr->not_completed = 512
Shader 4 initializing CTA #2 with hw tids from 512 to 768 @(3,0) shdr->not_completed = 512
Shader 5 initializing CTA #2 with hw tids from 512 to 768 @(3,0) shdr->not_completed = 512
Shader 6 initializing CTA #2 with hw tids from 512 to 768 @(3,0) shdr->not_completed = 512
Shader 7 initializing CTA #2 with hw tids from 512 to 768 @(3,0) shdr->not_completed = 512
Shader 8 initializing CTA #2 with hw tids from 512 to 768 @(3,0) shdr->not_completed = 512
Shader 9 initializing CTA #2 with hw tids from 512 to 768 @(3,0) shdr->not_completed = 512
Shader 10 initializing CTA #2 with hw tids from 512 to 768 @(3,0) shdr->not_completed = 512
Shader 11 initializing CTA #2 with hw tids from 512 to 768 @(3,0) shdr->not_completed = 512
Shader 12 initializing CTA #2 with hw tids from 512 to 768 @(3,0) shdr->not_completed = 512
Shader 13 initializing CTA #2 with hw tids from 512 to 768 @(3,0) shdr->not_completed = 512
Shader 14 initializing CTA #2 with hw tids from 512 to 768 @(3,0) shdr->not_completed = 512
Shader 15 initializing CTA #2 with hw tids from 512 to 768 @(3,0) shdr->not_completed = 512
Shader 0 initializing CTA #3 with hw tids from 768 to 1024 @(4,0) shdr->not_completed = 768
Shader 1 initializing CTA #3 with hw tids from 768 to 1024 @(4,0) shdr->not_completed = 768
Shader 2 initializing CTA #3 with hw tids from 768 to 1024 @(4,0) shdr->not_completed = 768
Shader 3 initializing CTA #3 with hw tids from 768 to 1024 @(4,0) shdr->not_completed = 768
Shader 4 initializing CTA #3 with hw tids from 768 to 1024 @(4,0) shdr->not_completed = 768
Shader 5 initializing CTA #3 with hw tids from 768 to 1024 @(4,0) shdr->not_completed = 768
Shader 6 initializing CTA #3 with hw tids from 768 to 1024 @(4,0) shdr->not_completed = 768
Shader 7 initializing CTA #3 with hw tids from 768 to 1024 @(4,0) shdr->not_completed = 768
Shader 8 initializing CTA #3 with hw tids from 768 to 1024 @(4,0) shdr->not_completed = 768
Shader 9 initializing CTA #3 with hw tids from 768 to 1024 @(4,0) shdr->not_completed = 768
Shader 10 initializing CTA #3 with hw tids from 768 to 1024 @(4,0) shdr->not_completed = 768
Shader 11 initializing CTA #3 with hw tids from 768 to 1024 @(4,0) shdr->not_completed = 768
Shader 12 initializing CTA #3 with hw tids from 768 to 1024 @(4,0) shdr->not_completed = 768
Shader 13 initializing CTA #3 with hw tids from 768 to 1024 @(4,0) shdr->not_completed = 768
Shader 14 initializing CTA #3 with hw tids from 768 to 1024 @(4,0) shdr->not_completed = 768
Shader 15 initializing CTA #3 with hw tids from 768 to 1024 @(4,0) shdr->not_completed = 768
cycles: 1000  inst.: 33536 (ipc=33.5) sim_rate=33536 (inst/sec) elapsed = 0:0:00:01 / Wed May 25 14:30:45 2011
cycles: 2000  inst.: 34369 (ipc=17.2) sim_rate=17184 (inst/sec) elapsed = 0:0:00:02 / Wed May 25 14:30:46 2011
cycles: 3000  inst.: 35202 (ipc=11.7) sim_rate=17601 (inst/sec) elapsed = 0:0:00:02 / Wed May 25 14:30:46 2011
cycles: 4000  inst.: 36036 (ipc= 9.0) sim_rate=12012 (inst/sec) elapsed = 0:0:00:03 / Wed May 25 14:30:47 2011
cycles: 5000  inst.: 40453 (ipc= 8.1) sim_rate=10113 (inst/sec) elapsed = 0:0:00:04 / Wed May 25 14:30:48 2011
cycles: 6000  inst.: 41286 (ipc= 6.9) sim_rate=8257 (inst/sec) elapsed = 0:0:00:05 / Wed May 25 14:30:49 2011
cycles: 7000  inst.: 44168 (ipc= 6.3) sim_rate=7361 (inst/sec) elapsed = 0:0:00:06 / Wed May 25 14:30:50 2011
cycles: 8000  inst.: 46025 (ipc= 5.8) sim_rate=7670 (inst/sec) elapsed = 0:0:00:06 / Wed May 25 14:30:50 2011
cycles: 9000  inst.: 47882 (ipc= 5.3) sim_rate=6840 (inst/sec) elapsed = 0:0:00:07 / Wed May 25 14:30:51 2011
cycles: 10000  inst.: 49228 (ipc= 4.9) sim_rate=6153 (inst/sec) elapsed = 0:0:00:08 / Wed May 25 14:30:52 2011
cycles: 11000  inst.: 51597 (ipc= 4.7) sim_rate=5733 (inst/sec) elapsed = 0:0:00:09 / Wed May 25 14:30:53 2011
cycles: 12000  inst.: 53967 (ipc= 4.5) sim_rate=5396 (inst/sec) elapsed = 0:0:00:10 / Wed May 25 14:30:54 2011
cycles: 13000  inst.: 56848 (ipc= 4.4) sim_rate=5684 (inst/sec) elapsed = 0:0:00:10 / Wed May 25 14:30:54 2011
cycles: 14000  inst.: 59217 (ipc= 4.2) sim_rate=5383 (inst/sec) elapsed = 0:0:00:11 / Wed May 25 14:30:55 2011
cycles: 15000  inst.: 61587 (ipc= 4.1) sim_rate=5132 (inst/sec) elapsed = 0:0:00:12 / Wed May 25 14:30:56 2011
cycles: 16000  inst.: 67028 (ipc= 4.2) sim_rate=5156 (inst/sec) elapsed = 0:0:00:13 / Wed May 25 14:30:57 2011
cycles: 17000  inst.: 73877 (ipc= 4.3) sim_rate=5276 (inst/sec) elapsed = 0:0:00:14 / Wed May 25 14:30:58 2011
cycles: 18000  inst.: 79447 (ipc= 4.4) sim_rate=5674 (inst/sec) elapsed = 0:0:00:14 / Wed May 25 14:30:58 2011
cycles: 19000  inst.: 84888 (ipc= 4.5) sim_rate=5659 (inst/sec) elapsed = 0:0:00:15 / Wed May 25 14:30:59 2011
cycles: 20000  inst.: 88793 (ipc= 4.4) sim_rate=5549 (inst/sec) elapsed = 0:0:00:16 / Wed May 25 14:31:00 2011
100000 instructions simulated : ctaid=(41,0,0) tid=(255,0,0)
cycles: 21000  inst.: 94235 (ipc= 4.5) sim_rate=5543 (inst/sec) elapsed = 0:0:00:17 / Wed May 25 14:31:01 2011
cycles: 22000  inst.: 99676 (ipc= 4.5) sim_rate=5537 (inst/sec) elapsed = 0:0:00:18 / Wed May 25 14:31:02 2011
cycles: 23000  inst.: 105117 (ipc= 4.6) sim_rate=5532 (inst/sec) elapsed = 0:0:00:19 / Wed May 25 14:31:03 2011
cycles: 24000  inst.: 110558 (ipc= 4.6) sim_rate=5818 (inst/sec) elapsed = 0:0:00:19 / Wed May 25 14:31:03 2011
cycles: 25000  inst.: 117536 (ipc= 4.7) sim_rate=5876 (inst/sec) elapsed = 0:0:00:20 / Wed May 25 14:31:04 2011
cycles: 26000  inst.: 120417 (ipc= 4.6) sim_rate=5734 (inst/sec) elapsed = 0:0:00:21 / Wed May 25 14:31:05 2011
cycles: 27000  inst.: 122018 (ipc= 4.5) sim_rate=5546 (inst/sec) elapsed = 0:0:00:22 / Wed May 25 14:31:06 2011
cycles: 28000  inst.: 123620 (ipc= 4.4) sim_rate=5374 (inst/sec) elapsed = 0:0:00:23 / Wed May 25 14:31:07 2011
cycles: 29000  inst.: 125477 (ipc= 4.3) sim_rate=5228 (inst/sec) elapsed = 0:0:00:24 / Wed May 25 14:31:08 2011
cycles: 30000  inst.: 127078 (ipc= 4.2) sim_rate=5294 (inst/sec) elapsed = 0:0:00:24 / Wed May 25 14:31:08 2011
cycles: 31000  inst.: 128168 (ipc= 4.1) sim_rate=5126 (inst/sec) elapsed = 0:0:00:25 / Wed May 25 14:31:09 2011
cycles: 32000  inst.: 129769 (ipc= 4.1) sim_rate=4991 (inst/sec) elapsed = 0:0:00:26 / Wed May 25 14:31:10 2011
cycles: 33000  inst.: 131626 (ipc= 4.0) sim_rate=4875 (inst/sec) elapsed = 0:0:00:27 / Wed May 25 14:31:11 2011
cycles: 34000  inst.: 133228 (ipc= 3.9) sim_rate=4758 (inst/sec) elapsed = 0:0:00:28 / Wed May 25 14:31:12 2011
cycles: 35000  inst.: 134829 (ipc= 3.9) sim_rate=4649 (inst/sec) elapsed = 0:0:00:29 / Wed May 25 14:31:13 2011
cycles: 36000  inst.: 136430 (ipc= 3.8) sim_rate=4547 (inst/sec) elapsed = 0:0:00:30 / Wed May 25 14:31:14 2011
cycles: 37000  inst.: 138288 (ipc= 3.7) sim_rate=4460 (inst/sec) elapsed = 0:0:00:31 / Wed May 25 14:31:15 2011
cycles: 38000  inst.: 139889 (ipc= 3.7) sim_rate=4371 (inst/sec) elapsed = 0:0:00:32 / Wed May 25 14:31:16 2011
cycles: 39000  inst.: 141490 (ipc= 3.6) sim_rate=4287 (inst/sec) elapsed = 0:0:00:33 / Wed May 25 14:31:17 2011
cycles: 40000  inst.: 143092 (ipc= 3.6) sim_rate=4208 (inst/sec) elapsed = 0:0:00:34 / Wed May 25 14:31:18 2011
cycles: 41000  inst.: 144693 (ipc= 3.5) sim_rate=4255 (inst/sec) elapsed = 0:0:00:34 / Wed May 25 14:31:18 2011
cycles: 42000  inst.: 146038 (ipc= 3.5) sim_rate=4172 (inst/sec) elapsed = 0:0:00:35 / Wed May 25 14:31:19 2011
cycles: 43000  inst.: 147640 (ipc= 3.4) sim_rate=4101 (inst/sec) elapsed = 0:0:00:36 / Wed May 25 14:31:20 2011
cycles: 44000  inst.: 149241 (ipc= 3.4) sim_rate=4033 (inst/sec) elapsed = 0:0:00:37 / Wed May 25 14:31:21 2011
cycles: 45000  inst.: 151099 (ipc= 3.4) sim_rate=3976 (inst/sec) elapsed = 0:0:00:38 / Wed May 25 14:31:22 2011
cycles: 46000  inst.: 152700 (ipc= 3.3) sim_rate=3915 (inst/sec) elapsed = 0:0:00:39 / Wed May 25 14:31:23 2011
cycles: 47000  inst.: 154813 (ipc= 3.3) sim_rate=3870 (inst/sec) elapsed = 0:0:00:40 / Wed May 25 14:31:24 2011
cycles: 48000  inst.: 157279 (ipc= 3.3) sim_rate=3931 (inst/sec) elapsed = 0:0:00:40 / Wed May 25 14:31:24 2011
cycles: 49000  inst.: 160064 (ipc= 3.3) sim_rate=3904 (inst/sec) elapsed = 0:0:00:41 / Wed May 25 14:31:25 2011
cycles: 50000  inst.: 162433 (ipc= 3.2) sim_rate=3867 (inst/sec) elapsed = 0:0:00:42 / Wed May 25 14:31:26 2011
cycles: 51000  inst.: 164803 (ipc= 3.2) sim_rate=3832 (inst/sec) elapsed = 0:0:00:43 / Wed May 25 14:31:27 2011
cycles: 52000  inst.: 166500 (ipc= 3.2) sim_rate=3784 (inst/sec) elapsed = 0:0:00:44 / Wed May 25 14:31:28 2011
cycles: 53000  inst.: 169029 (ipc= 3.2) sim_rate=3756 (inst/sec) elapsed = 0:0:00:45 / Wed May 25 14:31:29 2011
cycles: 54000  inst.: 171399 (ipc= 3.2) sim_rate=3726 (inst/sec) elapsed = 0:0:00:46 / Wed May 25 14:31:30 2011
cycles: 55000  inst.: 173768 (ipc= 3.2) sim_rate=3777 (inst/sec) elapsed = 0:0:00:46 / Wed May 25 14:31:30 2011
cycles: 56000  inst.: 176649 (ipc= 3.2) sim_rate=3758 (inst/sec) elapsed = 0:0:00:47 / Wed May 25 14:31:31 2011
cycles: 57000  inst.: 179019 (ipc= 3.1) sim_rate=3729 (inst/sec) elapsed = 0:0:00:48 / Wed May 25 14:31:32 2011
cycles: 58000  inst.: 181388 (ipc= 3.1) sim_rate=3627 (inst/sec) elapsed = 0:0:00:50 / Wed May 25 14:31:34 2011
cycles: 59000  inst.: 183757 (ipc= 3.1) sim_rate=3603 (inst/sec) elapsed = 0:0:00:51 / Wed May 25 14:31:35 2011
cycles: 60000  inst.: 186639 (ipc= 3.1) sim_rate=3659 (inst/sec) elapsed = 0:0:00:51 / Wed May 25 14:31:35 2011
cycles: 61000  inst.: 189008 (ipc= 3.1) sim_rate=3634 (inst/sec) elapsed = 0:0:00:52 / Wed May 25 14:31:36 2011
200000 instructions simulated : ctaid=(44,0,0) tid=(31,0,0)
cycles: 62000  inst.: 190865 (ipc= 3.1) sim_rate=3601 (inst/sec) elapsed = 0:0:00:53 / Wed May 25 14:31:37 2011
cycles: 63000  inst.: 192723 (ipc= 3.1) sim_rate=3568 (inst/sec) elapsed = 0:0:00:54 / Wed May 25 14:31:38 2011
cycles: 64000  inst.: 195604 (ipc= 3.1) sim_rate=3492 (inst/sec) elapsed = 0:0:00:56 / Wed May 25 14:31:40 2011
cycles: 65000  inst.: 197973 (ipc= 3.0) sim_rate=3473 (inst/sec) elapsed = 0:0:00:57 / Wed May 25 14:31:41 2011
cycles: 66000  inst.: 200343 (ipc= 3.0) sim_rate=3454 (inst/sec) elapsed = 0:0:00:58 / Wed May 25 14:31:42 2011
cycles: 67000  inst.: 202712 (ipc= 3.0) sim_rate=3435 (inst/sec) elapsed = 0:0:00:59 / Wed May 25 14:31:43 2011
cycles: 68000  inst.: 205593 (ipc= 3.0) sim_rate=3426 (inst/sec) elapsed = 0:0:01:00 / Wed May 25 14:31:44 2011
cycles: 69000  inst.: 207963 (ipc= 3.0) sim_rate=3466 (inst/sec) elapsed = 0:0:01:00 / Wed May 25 14:31:44 2011
cycles: 70000  inst.: 210332 (ipc= 3.0) sim_rate=3448 (inst/sec) elapsed = 0:0:01:01 / Wed May 25 14:31:45 2011
cycles: 71000  inst.: 212701 (ipc= 3.0) sim_rate=3430 (inst/sec) elapsed = 0:0:01:02 / Wed May 25 14:31:46 2011
cycles: 72000  inst.: 215071 (ipc= 3.0) sim_rate=3413 (inst/sec) elapsed = 0:0:01:03 / Wed May 25 14:31:47 2011
cycles: 73000  inst.: 216928 (ipc= 3.0) sim_rate=3389 (inst/sec) elapsed = 0:0:01:04 / Wed May 25 14:31:48 2011
cycles: 74000  inst.: 219297 (ipc= 3.0) sim_rate=3373 (inst/sec) elapsed = 0:0:01:05 / Wed May 25 14:31:49 2011
cycles: 75000  inst.: 221667 (ipc= 3.0) sim_rate=3358 (inst/sec) elapsed = 0:0:01:06 / Wed May 25 14:31:50 2011
cycles: 76000  inst.: 224548 (ipc= 3.0) sim_rate=3351 (inst/sec) elapsed = 0:0:01:07 / Wed May 25 14:31:51 2011
cycles: 77000  inst.: 226917 (ipc= 2.9) sim_rate=3337 (inst/sec) elapsed = 0:0:01:08 / Wed May 25 14:31:52 2011
cycles: 78000  inst.: 229543 (ipc= 2.9) sim_rate=3326 (inst/sec) elapsed = 0:0:01:09 / Wed May 25 14:31:53 2011
cycles: 79000  inst.: 232680 (ipc= 2.9) sim_rate=3372 (inst/sec) elapsed = 0:0:01:09 / Wed May 25 14:31:53 2011
cycles: 80000  inst.: 236585 (ipc= 3.0) sim_rate=3379 (inst/sec) elapsed = 0:0:01:10 / Wed May 25 14:31:54 2011
cycles: 81000  inst.: 239723 (ipc= 3.0) sim_rate=3376 (inst/sec) elapsed = 0:0:01:11 / Wed May 25 14:31:55 2011
cycles: 82000  inst.: 242860 (ipc= 3.0) sim_rate=3373 (inst/sec) elapsed = 0:0:01:12 / Wed May 25 14:31:56 2011
cycles: 83000  inst.: 245229 (ipc= 3.0) sim_rate=3359 (inst/sec) elapsed = 0:0:01:13 / Wed May 25 14:31:57 2011
cycles: 84000  inst.: 263727 (ipc= 3.1) sim_rate=3563 (inst/sec) elapsed = 0:0:01:14 / Wed May 25 14:31:58 2011
cycles: 85000  inst.: 266864 (ipc= 3.1) sim_rate=3558 (inst/sec) elapsed = 0:0:01:15 / Wed May 25 14:31:59 2011
cycles: 86000  inst.: 270001 (ipc= 3.1) sim_rate=3552 (inst/sec) elapsed = 0:0:01:16 / Wed May 25 14:32:00 2011
cycles: 87000  inst.: 273139 (ipc= 3.1) sim_rate=3547 (inst/sec) elapsed = 0:0:01:17 / Wed May 25 14:32:01 2011
cycles: 88000  inst.: 277044 (ipc= 3.1) sim_rate=3551 (inst/sec) elapsed = 0:0:01:18 / Wed May 25 14:32:02 2011
cycles: 89000  inst.: 279413 (ipc= 3.1) sim_rate=3536 (inst/sec) elapsed = 0:0:01:19 / Wed May 25 14:32:03 2011
cycles: 90000  inst.: 281783 (ipc= 3.1) sim_rate=3522 (inst/sec) elapsed = 0:0:01:20 / Wed May 25 14:32:04 2011
cycles: 91000  inst.: 284152 (ipc= 3.1) sim_rate=3508 (inst/sec) elapsed = 0:0:01:21 / Wed May 25 14:32:05 2011
cycles: 92000  inst.: 287033 (ipc= 3.1) sim_rate=3500 (inst/sec) elapsed = 0:0:01:22 / Wed May 25 14:32:06 2011
cycles: 93000  inst.: 288891 (ipc= 3.1) sim_rate=3480 (inst/sec) elapsed = 0:0:01:23 / Wed May 25 14:32:07 2011
300000 instructions simulated : ctaid=(44,0,0) tid=(63,0,0)
cycles: 94000  inst.: 290748 (ipc= 3.1) sim_rate=3461 (inst/sec) elapsed = 0:0:01:24 / Wed May 25 14:32:08 2011
cycles: 95000  inst.: 293149 (ipc= 3.1) sim_rate=3448 (inst/sec) elapsed = 0:0:01:25 / Wed May 25 14:32:09 2011
cycles: 96000  inst.: 295999 (ipc= 3.1) sim_rate=3441 (inst/sec) elapsed = 0:0:01:26 / Wed May 25 14:32:10 2011
cycles: 97000  inst.: 298368 (ipc= 3.1) sim_rate=3429 (inst/sec) elapsed = 0:0:01:27 / Wed May 25 14:32:11 2011
cycles: 98000  inst.: 300737 (ipc= 3.1) sim_rate=3417 (inst/sec) elapsed = 0:0:01:28 / Wed May 25 14:32:12 2011
cycles: 99000  inst.: 303075 (ipc= 3.1) sim_rate=3444 (inst/sec) elapsed = 0:0:01:28 / Wed May 25 14:32:12 2011
cycles: 100000  inst.: 304708 (ipc= 3.0) sim_rate=3423 (inst/sec) elapsed = 0:0:01:29 / Wed May 25 14:32:13 2011
cycles: 101000  inst.: 306309 (ipc= 3.0) sim_rate=3403 (inst/sec) elapsed = 0:0:01:30 / Wed May 25 14:32:14 2011
cycles: 102000  inst.: 307911 (ipc= 3.0) sim_rate=3383 (inst/sec) elapsed = 0:0:01:31 / Wed May 25 14:32:15 2011
cycles: 103000  inst.: 309768 (ipc= 3.0) sim_rate=3367 (inst/sec) elapsed = 0:0:01:32 / Wed May 25 14:32:16 2011
cycles: 104000  inst.: 310857 (ipc= 3.0) sim_rate=3342 (inst/sec) elapsed = 0:0:01:33 / Wed May 25 14:32:17 2011
cycles: 105000  inst.: 312459 (ipc= 3.0) sim_rate=3324 (inst/sec) elapsed = 0:0:01:34 / Wed May 25 14:32:18 2011
cycles: 106000  inst.: 314060 (ipc= 3.0) sim_rate=3305 (inst/sec) elapsed = 0:0:01:35 / Wed May 25 14:32:19 2011
cycles: 107000  inst.: 315917 (ipc= 3.0) sim_rate=3290 (inst/sec) elapsed = 0:0:01:36 / Wed May 25 14:32:20 2011
cycles: 108000  inst.: 317519 (ipc= 2.9) sim_rate=3273 (inst/sec) elapsed = 0:0:01:37 / Wed May 25 14:32:21 2011
cycles: 109000  inst.: 319120 (ipc= 2.9) sim_rate=3289 (inst/sec) elapsed = 0:0:01:37 / Wed May 25 14:32:21 2011
cycles: 110000  inst.: 320721 (ipc= 2.9) sim_rate=3272 (inst/sec) elapsed = 0:0:01:38 / Wed May 25 14:32:22 2011
cycles: 111000  inst.: 322579 (ipc= 2.9) sim_rate=3258 (inst/sec) elapsed = 0:0:01:39 / Wed May 25 14:32:23 2011
cycles: 112000  inst.: 324180 (ipc= 2.9) sim_rate=3241 (inst/sec) elapsed = 0:0:01:40 / Wed May 25 14:32:24 2011
cycles: 113000  inst.: 325781 (ipc= 2.9) sim_rate=3225 (inst/sec) elapsed = 0:0:01:41 / Wed May 25 14:32:25 2011
Shader 0 finished CTA #1 (113431,0)
Shader 2 finished CTA #1 (113432,0)
Shader 4 finished CTA #1 (113433,0)
Shader 6 finished CTA #1 (113434,0)
Shader 8 finished CTA #1 (113435,0)
Shader 10 finished CTA #1 (113437,0)
Shader 12 finished CTA #1 (113438,0)
Shader 14 finished CTA #1 (113439,0)
cycles: 114000  inst.: 327127 (ipc= 2.9) sim_rate=3207 (inst/sec) elapsed = 0:0:01:42 / Wed May 25 14:32:26 2011
cycles: 115000  inst.: 328728 (ipc= 2.9) sim_rate=3191 (inst/sec) elapsed = 0:0:01:43 / Wed May 25 14:32:27 2011
cycles: 116000  inst.: 330329 (ipc= 2.8) sim_rate=3207 (inst/sec) elapsed = 0:0:01:43 / Wed May 25 14:32:27 2011
Shader 0 finished CTA #2 (116503,0)
Shader 2 finished CTA #2 (116504,0)
Shader 4 finished CTA #2 (116505,0)
Shader 6 finished CTA #2 (116506,0)
Shader 8 finished CTA #2 (116507,0)
Shader 10 finished CTA #2 (116509,0)
Shader 12 finished CTA #2 (116510,0)
Shader 14 finished CTA #2 (116511,0)
cycles: 117000  inst.: 335003 (ipc= 2.9) sim_rate=3221 (inst/sec) elapsed = 0:0:01:44 / Wed May 25 14:32:28 2011
cycles: 118000  inst.: 340700 (ipc= 2.9) sim_rate=3244 (inst/sec) elapsed = 0:0:01:45 / Wed May 25 14:32:29 2011
Shader 0 finished CTA #3 (118960,0)
Shader 2 finished CTA #3 (118961,0)
Shader 4 finished CTA #3 (118963,0)
Shader 6 finished CTA #3 (118964,0)
Shader 8 finished CTA #3 (118965,0)
Shader 10 finished CTA #3 (118966,0)
Shader 12 finished CTA #3 (118967,0)
Shader 14 finished CTA #3 (118969,0)
cycles: 119000  inst.: 342557 (ipc= 2.9) sim_rate=3231 (inst/sec) elapsed = 0:0:01:46 / Wed May 25 14:32:30 2011
Shader 0 finished CTA #0 (119267,0)
Shader 2 finished CTA #0 (119269,0)
Shader 4 finished CTA #0 (119270,0)
Shader 6 finished CTA #0 (119271,0)
Shader 8 finished CTA #0 (119272,0)