

        *** GPGPU-Sim version 2.1.1b (beta) ***


GPGPU-Sim PTX: __cudaRegisterFunction _Z10testKernelPi : 0x403e50
GPGPU-Sim PTX: simulation mode 0 (can change with PTX_SIM_MODE_FUNC environment variable:
               1=functional simulation only, 0=detailed performance simulator)
GPGPU-Sim: Configuration options:

-network_mode                           1 # Interconnection network mode
-inter_config_file   icnt_config_quadro_islip.txt # Interconnection network config file
-save_embedded_ptx                      0 # saves ptx files embedded in binary as <n>.ptx
-gpgpu_simd_model                       1 # 0 = no recombination, 1 = post-dominator, 2 = MIMD, 3 = dynamic warp formation
-gpgpu_dram_scheduler                    1 # 0 = fifo (default), 1 = fast ideal
-gpgpu_max_cycle                        0 # terminates gpu simulation early (0 = no limit)
-gpgpu_max_insn                         0 # terminates gpu simulation early (0 = no limit)
-gpgpu_tex_cache:l1             64:64:2:L # per-shader L1 texture cache  (READ-ONLY) config, i.e., {<nsets>:<linesize>:<assoc>:<repl>|none}
-gpgpu_const_cache:l1            64:64:2:L # per-shader L1 constant memory cache  (READ-ONLY) config, i.e., {<nsets>:<linesize>:<assoc>:<repl>|none}
-gpgpu_no_dl1                           1 # no dl1 cache (voids -gpgpu_cache:dl1 option)
-gpgpu_cache:dl1               128:64:4:L # shader L1 data cache config, i.e., {<nsets>:<bsize>:<assoc>:<repl>|none}
-gpgpu_cache:dl2                     NULL # unified banked L2 data cache config, i.e., {<nsets>:<bsize>:<assoc>:<repl>|none}; disabled by default
-gpgpu_perfect_mem                      0 # enable perfect memory mode (no cache miss)
-gpgpu_shader_core_pipeline           1024:32:32 # shader core pipeline config, i.e., {<nthread>:<warpsize>:<pipe_simd_width>}
-gpgpu_shader_registers                16384 # Number of registers per shader core. Limits number of concurrent CTAs. (default 8192)
-gpgpu_shader_cta                       8 # Maximum number of concurrent CTAs in shader (default 8)
-gpgpu_n_shader                        30 # number of shaders in gpu
-gpgpu_n_mem                            8 # number of memory modules (e.g. memory controllers) in gpu
-gpgpu_n_mem_per_ctrlr                    2 # number of memory chips per memory controller
-gpgpu_runtime_stat                  1000 # display runtime statistics such as dram utilization {<freq>:<flag>}
-gpgpu_dwf_heuristic                    0 # DWF scheduling heuristic: 0 = majority, 1 = minority, 2 = timestamp, 3 = pdom priority, 4 = pc-based, 5 = max-heap
-gpgpu_reg_bankconflict                    0 # Check for bank conflict in the pipeline
-gpgpu_dwf_regbk                        1 # Have dwf scheduler to avoid bank conflict
-gpgpu_memlatency_stat                   14 # track and display latency statistics 0x2 enables MC, 0x4 enables queue logs
-gpgpu_mshr_per_thread                    1 # Number of MSHRs per thread
-gpgpu_interwarp_mshr_merge                    6 # interwarp coalescing
-gpgpu_dram_sched_queue_size                   32 # 0 = unlimited (default); # entries per chip
-gpgpu_dram_buswidth                    4 # default = 4 bytes (8 bytes per cycle at DDR)
-gpgpu_dram_burst_length                    4 # Burst length of each DRAM request (default = 4 DDR cycle)
-gpgpu_dram_timing_opt 8:2:8:12:25:10:35:10:7:6 # DRAM timing parameters = {nbk:tCCD:tRRD:tRCD:tRAS:tRP:tRC:CL:WL:tWTR}
-gpgpu_mem_address_mask                    1 # 0 = old addressing mask, 1 = new addressing mask, 2 = new add. mask + flipped bank sel and chip sel bits
-gpgpu_flush_cache                      0 # Flush cache at the end of each kernel call
-gpgpu_l2_readoverwrite                    0 # Prioritize read requests over write requests for L2
-gpgpu_pre_mem_stages                    1 # default = 0 pre-memory pipeline stages
-gpgpu_no_divg_load                     0 # Don't allow divergence on load
-gpgpu_dwf_hw                        32:2 # dynamic warp formation hw config, i.e., {<#LUT_entries>:<associativity>|none}
-gpgpu_thread_swizzling                    0 # Thread Swizzling (1=on, 0=off)
-gpgpu_strict_simd_wrbk                    0 # Applying Strick SIMD WriteBack Stage (1=on, 0=off)
-gpgpu_shmem_size                   16384 # Size of shared memory per shader core (default 16kB)
-gpgpu_shmem_bkconflict                    1 # Turn on bank conflict check for shared memory
-gpgpu_shmem_pipe_speedup                    1 # Number of groups each warp is divided for shared memory bank conflict check
-gpgpu_L2_queue         0:0:0:0:0:0:10:10 # L2 data cache queue length and latency config
-gpgpu_cache_wt_through                    0 # L1 cache become write through (1=on, 0=off)
-gpgpu_deadlock_detect                    1 # Stop the simulation at deadlock (1=on (default), 0=off)
-gpgpu_cache_bkconflict                    1 # Turn on bank conflict check for L1 cache access
-gpgpu_n_cache_bank                     1 # Number of banks in L1 cache, also for memory coalescing stall
-gpgpu_warpdistro_shader                   -1 # Specify which shader core to collect the warp size distribution from
-gpgpu_pdom_sched_type                    8 # 0 = first ready warp found, 1 = random, 8 = loose round robin
-gpgpu_spread_blocks_across_cores                    1 # Spread block-issuing across all cores instead of filling up core by core
-gpgpu_cuda_sim                         1 # use PTX instruction set
-gpgpu_ptx_instruction_classification                    0 # if enabled will classify ptx instruction types per kernel (Max 255 kernels now)
-gpgpu_ptx_sim_mode                     0 # Select between Performance (default) or Functional simulation (1)
-gpgpu_clock_domains 325.0:650.0:650.0:800.0 # Clock Domain Frequencies in MhZ {<Core Clock>:<ICNT Clock>:<L2 Clock>:<DRAM Clock>}
-gpgpu_shmem_port_per_bank                    2 # Number of access processed by a shared memory bank per cycle (default = 2)
-gpgpu_cache_port_per_bank                    2 # Number of access processed by a cache bank per cycle (default = 2)
-gpgpu_const_port_per_bank                    2 # Number of access processed by a constant cache bank per cycle (default = 2)
-gpgpu_cflog_interval                    0 # Interval between each snapshot in control flow logger
-gpgpu_partial_write_mask                    1 # use partial write mask to filter memory requests <1>No extra reads(use this!)<2>extra reads generated for partial chunks
-gpu_concentration                      3 # Number of shader cores per interconnection port (default = 1)
-gpgpu_local_mem_map                    1 # Mapping from local memory space address to simulated GPU physical address space (default = 1)
-pipetrace_out              pipetrace.txt # specifies file to output pipetrace to
-pipetrace                              0 # Turns pipetrace on/off
-gpgpu_mem_addr_mapping dramid@8;00000000.00000000.00000000.00000000.0000RRRR.RRRRRRRR.RRBBBCCC.CCCSSSSS # mapping memory address to dram model {dramid@<start bit>;<memory address map>}
-visualizer_enabled                     1 # Turn on visualizer output (1=On, 0=Off)
-visualizer_outputfile                 NULL # Specifies the output log file for visualizer
-visualizer_zlevel                      6 # Compression level of the visualizer output log (0=no comp, 9=highest)
-enable_ptx_file_line_stats                    1 # Turn on PTX source line statistic profiling. (1 = On)
-ptx_line_stats_filename gpgpu_inst_stats.txt # Output file for PTX source line statistics.
32 30 1024 983040
30720
addr_dec_mask[CHIP]  = 0000000000000700 	high:11 low:8
addr_dec_mask[BK]    = 000000000001c000 	high:17 low:14
addr_dec_mask[ROW]   = 000000007ffe0000 	high:31 low:17
addr_dec_mask[COL]   = 00000000000038ff 	high:14 low:0
addr_dec_mask[BURST] = 000000000000001f 	high:5 low:0
*** Initializing Memory Statistics ***
nodemap
0 
1 2 3 4 
5 6 7 8 
9 10 11 12 
13 14 15 16 
17 GPU performance model initialization complete.
GPGPU-Sim PTX: USING EMBEDDED .ptx files...
GPGPU-Sim PTX: parsing function _Z10testKernelPi
GPGPU-Sim PTX: instruction assembly for function '_Z10testKernelPi'...   done.
GPGPU-Sim PTX: Finding postdominators for '_Z10testKernelPi'...
GPGPU-Sim PTX: Finding immediate postdominators for '_Z10testKernelPi'...
GPGPU-Sim PTX: finished parsing EMBEDDED .ptx file _1.ptx
GPGPU-Sim PTX: extracting embedded .ptx to temporary file "_ptx_IDDs02"
GPGPU-Sim PTX: generating ptxinfo using "ptxas -v _ptx2_khWmNK --output-file /dev/null 2> _ptx_IDDs02info"
GPGPU-Sim PTX: Kernel _Z10testKernelPi
GPGPU-Sim PTX: removing ptxinfo using "rm -f _ptx_IDDs02 _ptx2_khWmNK _ptx_IDDs02info"
GPGPU-Sim PTX: loading global with explicit initializers...  done.
GPGPU-Sim PTX: loading constants with explicit initializers...  done.
GPGPU-Sim PTX: Program parsing completed (max 32 registers used per thread).
Using Device 0: "GPGPU-Sim_v2.1.1b (beta)"
GPGPU-Sim PTX: allocating 44 bytes on GPU starting at address 0x10000000
GPGPU-Sim PTX: cudaMallocing 44 bytes starting at 0x10000000..
GPGPU-Sim PTX: cudaMemcpy(): devPtr = 0x10000000
GPGPU-Sim PTX: copying 44 bytes from CPU[0x32b1440] to GPU[0x10000000] ...  done.



GPGPU-Sim PTX: cudaLaunch for 0x403e50 (mode=performance simulation)
GPGPU-Sim PTX: Launching kernel '_Z10testKernelPi' gridDim= (64,1,1) blockDim = (256,1,1); ntuid=1
GPGPU-Sim uArch: clock freqs: 325000000.000000:650000000.000000:650000000.000000:800000000.000000
GPGPU-Sim uArch: clock periods: 0.00000000307692307692:0.00000000153846153846:0.00000000153846153846:0.00000000125000000000
Reconvergence Pairs for _Z10testKernelPi
CTA/core = 4, limited by: threads
Shader 0 initializing CTA #0 with hw tids from 0 to 256 @(1,0) shdr->not_completed = 0
Shader 1 initializing CTA #0 with hw tids from 0 to 256 @(1,0) shdr->not_completed = 0
Shader 2 initializing CTA #0 with hw tids from 0 to 256 @(1,0) shdr->not_completed = 0
Shader 3 initializing CTA #0 with hw tids from 0 to 256 @(1,0) shdr->not_completed = 0
Shader 4 initializing CTA #0 with hw tids from 0 to 256 @(1,0) shdr->not_completed = 0
Shader 5 initializing CTA #0 with hw tids from 0 to 256 @(1,0) shdr->not_completed = 0
Shader 6 initializing CTA #0 with hw tids from 0 to 256 @(1,0) shdr->not_completed = 0
Shader 7 initializing CTA #0 with hw tids from 0 to 256 @(1,0) shdr->not_completed = 0
Shader 8 initializing CTA #0 with hw tids from 0 to 256 @(1,0) shdr->not_completed = 0
Shader 9 initializing CTA #0 with hw tids from 0 to 256 @(1,0) shdr->not_completed = 0
Shader 10 initializing CTA #0 with hw tids from 0 to 256 @(1,0) shdr->not_completed = 0
Shader 11 initializing CTA #0 with hw tids from 0 to 256 @(1,0) shdr->not_completed = 0
Shader 12 initializing CTA #0 with hw tids from 0 to 256 @(1,0) shdr->not_completed = 0
Shader 13 initializing CTA #0 with hw tids from 0 to 256 @(1,0) shdr->not_completed = 0
Shader 14 initializing CTA #0 with hw tids from 0 to 256 @(1,0) shdr->not_completed = 0
Shader 15 initializing CTA #0 with hw tids from 0 to 256 @(1,0) shdr->not_completed = 0
Shader 16 initializing CTA #0 with hw tids from 0 to 256 @(1,0) shdr->not_completed = 0
Shader 17 initializing CTA #0 with hw tids from 0 to 256 @(1,0) shdr->not_completed = 0
Shader 18 initializing CTA #0 with hw tids from 0 to 256 @(1,0) shdr->not_completed = 0
Shader 19 initializing CTA #0 with hw tids from 0 to 256 @(1,0) shdr->not_completed = 0
Shader 20 initializing CTA #0 with hw tids from 0 to 256 @(1,0) shdr->not_completed = 0
Shader 21 initializing CTA #0 with hw tids from 0 to 256 @(1,0) shdr->not_completed = 0
Shader 22 initializing CTA #0 with hw tids from 0 to 256 @(1,0) shdr->not_completed = 0
Shader 23 initializing CTA #0 with hw tids from 0 to 256 @(1,0) shdr->not_completed = 0
Shader 24 initializing CTA #0 with hw tids from 0 to 256 @(1,0) shdr->not_completed = 0
Shader 25 initializing CTA #0 with hw tids from 0 to 256 @(1,0) shdr->not_completed = 0
Shader 26 initializing CTA #0 with hw tids from 0 to 256 @(1,0) shdr->not_completed = 0
Shader 27 initializing CTA #0 with hw tids from 0 to 256 @(1,0) shdr->not_completed = 0
Shader 28 initializing CTA #0 with hw tids from 0 to 256 @(1,0) shdr->not_completed = 0
Shader 29 initializing CTA #0 with hw tids from 0 to 256 @(1,0) shdr->not_completed = 0
Shader 0 initializing CTA #1 with hw tids from 256 to 512 @(2,0) shdr->not_completed = 256
Shader 1 initializing CTA #1 with hw tids from 256 to 512 @(2,0) shdr->not_completed = 256
Shader 2 initializing CTA #1 with hw tids from 256 to 512 @(2,0) shdr->not_completed = 256
Shader 3 initializing CTA #1 with hw tids from 256 to 512 @(2,0) shdr->not_completed = 256
Shader 4 initializing CTA #1 with hw tids from 256 to 512 @(2,0) shdr->not_completed = 256
Shader 5 initializing CTA #1 with hw tids from 256 to 512 @(2,0) shdr->not_completed = 256
Shader 6 initializing CTA #1 with hw tids from 256 to 512 @(2,0) shdr->not_completed = 256
Shader 7 initializing CTA #1 with hw tids from 256 to 512 @(2,0) shdr->not_completed = 256
Shader 8 initializing CTA #1 with hw tids from 256 to 512 @(2,0) shdr->not_completed = 256
Shader 9 initializing CTA #1 with hw tids from 256 to 512 @(2,0) shdr->not_completed = 256
Shader 10 initializing CTA #1 with hw tids from 256 to 512 @(2,0) shdr->not_completed = 256
Shader 11 initializing CTA #1 with hw tids from 256 to 512 @(2,0) shdr->not_completed = 256
Shader 12 initializing CTA #1 with hw tids from 256 to 512 @(2,0) shdr->not_completed = 256
Shader 13 initializing CTA #1 with hw tids from 256 to 512 @(2,0) shdr->not_completed = 256
Shader 14 initializing CTA #1 with hw tids from 256 to 512 @(2,0) shdr->not_completed = 256
Shader 15 initializing CTA #1 with hw tids from 256 to 512 @(2,0) shdr->not_completed = 256
Shader 16 initializing CTA #1 with hw tids from 256 to 512 @(2,0) shdr->not_completed = 256
Shader 17 initializing CTA #1 with hw tids from 256 to 512 @(2,0) shdr->not_completed = 256
Shader 18 initializing CTA #1 with hw tids from 256 to 512 @(2,0) shdr->not_completed = 256
Shader 19 initializing CTA #1 with hw tids from 256 to 512 @(2,0) shdr->not_completed = 256
Shader 20 initializing CTA #1 with hw tids from 256 to 512 @(2,0) shdr->not_completed = 256
Shader 21 initializing CTA #1 with hw tids from 256 to 512 @(2,0) shdr->not_completed = 256
Shader 22 initializing CTA #1 with hw tids from 256 to 512 @(2,0) shdr->not_completed = 256
Shader 23 initializing CTA #1 with hw tids from 256 to 512 @(2,0) shdr->not_completed = 256
Shader 24 initializing CTA #1 with hw tids from 256 to 512 @(2,0) shdr->not_completed = 256
Shader 25 initializing CTA #1 with hw tids from 256 to 512 @(2,0) shdr->not_completed = 256
Shader 26 initializing CTA #1 with hw tids from 256 to 512 @(2,0) shdr->not_completed = 256
Shader 27 initializing CTA #1 with hw tids from 256 to 512 @(2,0) shdr->not_completed = 256
Shader 28 initializing CTA #1 with hw tids from 256 to 512 @(2,0) shdr->not_completed = 256
Shader 29 initializing CTA #1 with hw tids from 256 to 512 @(2,0) shdr->not_completed = 256
Shader 0 initializing CTA #2 with hw tids from 512 to 768 @(3,0) shdr->not_completed = 512
Shader 1 initializing CTA #2 with hw tids from 512 to 768 @(3,0) shdr->not_completed = 512
Shader 2 initializing CTA #2 with hw tids from 512 to 768 @(3,0) shdr->not_completed = 512
Shader 3 initializing CTA #2 with hw tids from 512 to 768 @(3,0) shdr->not_completed = 512
cycles: 1000  inst.: 33417 (ipc=33.4) sim_rate=16708 (inst/sec) elapsed = 0:0:00:02 / Wed May 25 11:06:17 2011
cycles: 2000  inst.: 34097 (ipc=17.0) sim_rate=11365 (inst/sec) elapsed = 0:0:00:03 / Wed May 25 11:06:18 2011
cycles: 3000  inst.: 35736 (ipc=11.9) sim_rate=7147 (inst/sec) elapsed = 0:0:00:05 / Wed May 25 11:06:20 2011
cycles: 4000  inst.: 36863 (ipc= 9.2) sim_rate=6143 (inst/sec) elapsed = 0:0:00:06 / Wed May 25 11:06:21 2011
cycles: 5000  inst.: 37479 (ipc= 7.5) sim_rate=4684 (inst/sec) elapsed = 0:0:00:08 / Wed May 25 11:06:23 2011
cycles: 6000  inst.: 38606 (ipc= 6.4) sim_rate=4289 (inst/sec) elapsed = 0:0:00:09 / Wed May 25 11:06:24 2011
cycles: 7000  inst.: 39989 (ipc= 5.7) sim_rate=3635 (inst/sec) elapsed = 0:0:00:11 / Wed May 25 11:06:26 2011
cycles: 8000  inst.: 43165 (ipc= 5.4) sim_rate=3597 (inst/sec) elapsed = 0:0:00:12 / Wed May 25 11:06:27 2011
cycles: 9000  inst.: 44420 (ipc= 4.9) sim_rate=3172 (inst/sec) elapsed = 0:0:00:14 / Wed May 25 11:06:29 2011
cycles: 10000  inst.: 45612 (ipc= 4.6) sim_rate=3040 (inst/sec) elapsed = 0:0:00:15 / Wed May 25 11:06:30 2011
cycles: 11000  inst.: 46227 (ipc= 4.2) sim_rate=2719 (inst/sec) elapsed = 0:0:00:17 / Wed May 25 11:06:32 2011
cycles: 12000  inst.: 48442 (ipc= 4.0) sim_rate=2691 (inst/sec) elapsed = 0:0:00:18 / Wed May 25 11:06:33 2011
cycles: 13000  inst.: 50274 (ipc= 3.9) sim_rate=2513 (inst/sec) elapsed = 0:0:00:20 / Wed May 25 11:06:35 2011
cycles: 14000  inst.: 51977 (ipc= 3.7) sim_rate=2475 (inst/sec) elapsed = 0:0:00:21 / Wed May 25 11:06:36 2011
cycles: 15000  inst.: 53169 (ipc= 3.5) sim_rate=2311 (inst/sec) elapsed = 0:0:00:23 / Wed May 25 11:06:38 2011
cycles: 16000  inst.: 54296 (ipc= 3.4) sim_rate=2262 (inst/sec) elapsed = 0:0:00:24 / Wed May 25 11:06:39 2011
cycles: 17000  inst.: 55999 (ipc= 3.3) sim_rate=2153 (inst/sec) elapsed = 0:0:00:26 / Wed May 25 11:06:41 2011
cycles: 18000  inst.: 57319 (ipc= 3.2) sim_rate=2047 (inst/sec) elapsed = 0:0:00:28 / Wed May 25 11:06:43 2011
cycles: 19000  inst.: 59214 (ipc= 3.1) sim_rate=2041 (inst/sec) elapsed = 0:0:00:29 / Wed May 25 11:06:44 2011
cycles: 20000  inst.: 61109 (ipc= 3.1) sim_rate=1971 (inst/sec) elapsed = 0:0:00:31 / Wed May 25 11:06:46 2011
cycles: 21000  inst.: 65053 (ipc= 3.1) sim_rate=2032 (inst/sec) elapsed = 0:0:00:32 / Wed May 25 11:06:47 2011
cycles: 22000  inst.: 67972 (ipc= 3.1) sim_rate=1999 (inst/sec) elapsed = 0:0:00:34 / Wed May 25 11:06:49 2011
cycles: 23000  inst.: 70892 (ipc= 3.1) sim_rate=2025 (inst/sec) elapsed = 0:0:00:35 / Wed May 25 11:06:50 2011
cycles: 24000  inst.: 72723 (ipc= 3.0) sim_rate=1965 (inst/sec) elapsed = 0:0:00:37 / Wed May 25 11:06:52 2011
cycles: 25000  inst.: 75354 (ipc= 3.0) sim_rate=1983 (inst/sec) elapsed = 0:0:00:38 / Wed May 25 11:06:53 2011
cycles: 26000  inst.: 78370 (ipc= 3.0) sim_rate=1959 (inst/sec) elapsed = 0:0:00:40 / Wed May 25 11:06:55 2011
cycles: 27000  inst.: 82569 (ipc= 3.1) sim_rate=2013 (inst/sec) elapsed = 0:0:00:41 / Wed May 25 11:06:56 2011
cycles: 28000  inst.: 86769 (ipc= 3.1) sim_rate=2017 (inst/sec) elapsed = 0:0:00:43 / Wed May 25 11:06:58 2011
100000 instructions simulated : ctaid=(7,0,0) tid=(159,0,0)
cycles: 29000  inst.: 90584 (ipc= 3.1) sim_rate=2012 (inst/sec) elapsed = 0:0:00:45 / Wed May 25 11:07:00 2011
cycles: 30000  inst.: 94527 (ipc= 3.2) sim_rate=2054 (inst/sec) elapsed = 0:0:00:46 / Wed May 25 11:07:01 2011
cycles: 31000  inst.: 99687 (ipc= 3.2) sim_rate=2076 (inst/sec) elapsed = 0:0:00:48 / Wed May 25 11:07:03 2011
cycles: 32000  inst.: 103374 (ipc= 3.2) sim_rate=2109 (inst/sec) elapsed = 0:0:00:49 / Wed May 25 11:07:04 2011
cycles: 33000  inst.: 108021 (ipc= 3.3) sim_rate=2118 (inst/sec) elapsed = 0:0:00:51 / Wed May 25 11:07:06 2011
cycles: 34000  inst.: 110749 (ipc= 3.3) sim_rate=2129 (inst/sec) elapsed = 0:0:00:52 / Wed May 25 11:07:07 2011
cycles: 35000  inst.: 113092 (ipc= 3.2) sim_rate=2094 (inst/sec) elapsed = 0:0:00:54 / Wed May 25 11:07:09 2011
cycles: 36000  inst.: 117516 (ipc= 3.3) sim_rate=2136 (inst/sec) elapsed = 0:0:00:55 / Wed May 25 11:07:10 2011
cycles: 37000  inst.: 121811 (ipc= 3.3) sim_rate=2137 (inst/sec) elapsed = 0:0:00:57 / Wed May 25 11:07:12 2011
cycles: 38000  inst.: 124698 (ipc= 3.3) sim_rate=2149 (inst/sec) elapsed = 0:0:00:58 / Wed May 25 11:07:13 2011
cycles: 39000  inst.: 126434 (ipc= 3.2) sim_rate=2107 (inst/sec) elapsed = 0:0:01:00 / Wed May 25 11:07:15 2011
cycles: 40000  inst.: 129609 (ipc= 3.2) sim_rate=2124 (inst/sec) elapsed = 0:0:01:01 / Wed May 25 11:07:16 2011
cycles: 41000  inst.: 132785 (ipc= 3.2) sim_rate=2107 (inst/sec) elapsed = 0:0:01:03 / Wed May 25 11:07:18 2011
cycles: 42000  inst.: 137240 (ipc= 3.3) sim_rate=2144 (inst/sec) elapsed = 0:0:01:04 / Wed May 25 11:07:19 2011
cycles: 43000  inst.: 140096 (ipc= 3.3) sim_rate=2122 (inst/sec) elapsed = 0:0:01:06 / Wed May 25 11:07:21 2011
cycles: 44000  inst.: 141671 (ipc= 3.2) sim_rate=2114 (inst/sec) elapsed = 0:0:01:07 / Wed May 25 11:07:22 2011
cycles: 45000  inst.: 143246 (ipc= 3.2) sim_rate=2076 (inst/sec) elapsed = 0:0:01:09 / Wed May 25 11:07:24 2011
cycles: 46000  inst.: 144790 (ipc= 3.1) sim_rate=2039 (inst/sec) elapsed = 0:0:01:11 / Wed May 25 11:07:26 2011
cycles: 47000  inst.: 146333 (ipc= 3.1) sim_rate=2032 (inst/sec) elapsed = 0:0:01:12 / Wed May 25 11:07:27 2011
cycles: 48000  inst.: 147461 (ipc= 3.1) sim_rate=1992 (inst/sec) elapsed = 0:0:01:14 / Wed May 25 11:07:29 2011
cycles: 49000  inst.: 149388 (ipc= 3.0) sim_rate=1991 (inst/sec) elapsed = 0:0:01:15 / Wed May 25 11:07:30 2011
cycles: 50000  inst.: 150899 (ipc= 3.0) sim_rate=1985 (inst/sec) elapsed = 0:0:01:16 / Wed May 25 11:07:31 2011
cycles: 51000  inst.: 152699 (ipc= 3.0) sim_rate=1957 (inst/sec) elapsed = 0:0:01:18 / Wed May 25 11:07:33 2011
cycles: 52000  inst.: 161090 (ipc= 3.1) sim_rate=2039 (inst/sec) elapsed = 0:0:01:19 / Wed May 25 11:07:34 2011
cycles: 53000  inst.: 162313 (ipc= 3.1) sim_rate=2003 (inst/sec) elapsed = 0:0:01:21 / Wed May 25 11:07:36 2011
cycles: 54000  inst.: 163569 (ipc= 3.0) sim_rate=1994 (inst/sec) elapsed = 0:0:01:22 / Wed May 25 11:07:37 2011
cycles: 55000  inst.: 164824 (ipc= 3.0) sim_rate=1962 (inst/sec) elapsed = 0:0:01:24 / Wed May 25 11:07:39 2011
cycles: 56000  inst.: 166080 (ipc= 3.0) sim_rate=1931 (inst/sec) elapsed = 0:0:01:26 / Wed May 25 11:07:41 2011
cycles: 57000  inst.: 167335 (ipc= 2.9) sim_rate=1923 (inst/sec) elapsed = 0:0:01:27 / Wed May 25 11:07:42 2011
cycles: 58000  inst.: 168590 (ipc= 2.9) sim_rate=1894 (inst/sec) elapsed = 0:0:01:29 / Wed May 25 11:07:44 2011
cycles: 59000  inst.: 169846 (ipc= 2.9) sim_rate=1887 (inst/sec) elapsed = 0:0:01:30 / Wed May 25 11:07:45 2011
cycles: 60000  inst.: 171101 (ipc= 2.9) sim_rate=1859 (inst/sec) elapsed = 0:0:01:32 / Wed May 25 11:07:47 2011
cycles: 61000  inst.: 172357 (ipc= 2.8) sim_rate=1853 (inst/sec) elapsed = 0:0:01:33 / Wed May 25 11:07:48 2011
cycles: 62000  inst.: 173612 (ipc= 2.8) sim_rate=1827 (inst/sec) elapsed = 0:0:01:35 / Wed May 25 11:07:50 2011
cycles: 63000  inst.: 174835 (ipc= 2.8) sim_rate=1821 (inst/sec) elapsed = 0:0:01:36 / Wed May 25 11:07:51 2011
cycles: 64000  inst.: 175931 (ipc= 2.7) sim_rate=1795 (inst/sec) elapsed = 0:0:01:38 / Wed May 25 11:07:53 2011
cycles: 65000  inst.: 176994 (ipc= 2.7) sim_rate=1787 (inst/sec) elapsed = 0:0:01:39 / Wed May 25 11:07:54 2011
cycles: 66000  inst.: 178121 (ipc= 2.7) sim_rate=1763 (inst/sec) elapsed = 0:0:01:41 / Wed May 25 11:07:56 2011
cycles: 67000  inst.: 179537 (ipc= 2.7) sim_rate=1760 (inst/sec) elapsed = 0:0:01:42 / Wed May 25 11:07:57 2011
cycles: 68000  inst.: 180696 (ipc= 2.7) sim_rate=1737 (inst/sec) elapsed = 0:0:01:44 / Wed May 25 11:07:59 2011
cycles: 69000  inst.: 183488 (ipc= 2.7) sim_rate=1747 (inst/sec) elapsed = 0:0:01:45 / Wed May 25 11:08:00 2011
cycles: 70000  inst.: 184647 (ipc= 2.6) sim_rate=1725 (inst/sec) elapsed = 0:0:01:47 / Wed May 25 11:08:02 2011
cycles: 71000  inst.: 185614 (ipc= 2.6) sim_rate=1718 (inst/sec) elapsed = 0:0:01:48 / Wed May 25 11:08:03 2011
cycles: 72000  inst.: 186870 (ipc= 2.6) sim_rate=1698 (inst/sec) elapsed = 0:0:01:50 / Wed May 25 11:08:05 2011
200000 instructions simulated : ctaid=(27,0,0) tid=(31,0,0)
cycles: 73000  inst.: 188125 (ipc= 2.6) sim_rate=1694 (inst/sec) elapsed = 0:0:01:51 / Wed May 25 11:08:06 2011
cycles: 74000  inst.: 189893 (ipc= 2.6) sim_rate=1665 (inst/sec) elapsed = 0:0:01:54 / Wed May 25 11:08:09 2011
cycles: 75000  inst.: 191404 (ipc= 2.6) sim_rate=1650 (inst/sec) elapsed = 0:0:01:56 / Wed May 25 11:08:11 2011
cycles: 76000  inst.: 192883 (ipc= 2.5) sim_rate=1620 (inst/sec) elapsed = 0:0:01:59 / Wed May 25 11:08:14 2011
cycles: 77000  inst.: 194011 (ipc= 2.5) sim_rate=1590 (inst/sec) elapsed = 0:0:02:02 / Wed May 25 11:08:17 2011
cycles: 78000  inst.: 195394 (ipc= 2.5) sim_rate=1575 (inst/sec) elapsed = 0:0:02:04 / Wed May 25 11:08:19 2011
cycles: 79000  inst.: 196969 (ipc= 2.5) sim_rate=1550 (inst/sec) elapsed = 0:0:02:07 / Wed May 25 11:08:22 2011
cycles: 80000  inst.: 198801 (ipc= 2.5) sim_rate=1529 (inst/sec) elapsed = 0:0:02:10 / Wed May 25 11:08:25 2011
cycles: 81000  inst.: 200632 (ipc= 2.5) sim_rate=1519 (inst/sec) elapsed = 0:0:02:12 / Wed May 25 11:08:27 2011
cycles: 82000  inst.: 203232 (ipc= 2.5) sim_rate=1505 (inst/sec) elapsed = 0:0:02:15 / Wed May 25 11:08:30 2011
cycles: 83000  inst.: 204967 (ipc= 2.5) sim_rate=1496 (inst/sec) elapsed = 0:0:02:17 / Wed May 25 11:08:32 2011
cycles: 84000  inst.: 206670 (ipc= 2.5) sim_rate=1486 (inst/sec) elapsed = 0:0:02:19 / Wed May 25 11:08:34 2011
cycles: 85000  inst.: 208502 (ipc= 2.5) sim_rate=1478 (inst/sec) elapsed = 0:0:02:21 / Wed May 25 11:08:36 2011
cycles: 86000  inst.: 210205 (ipc= 2.4) sim_rate=1469 (inst/sec) elapsed = 0:0:02:23 / Wed May 25 11:08:38 2011
cycles: 87000  inst.: 211525 (ipc= 2.4) sim_rate=1468 (inst/sec) elapsed = 0:0:02:24 / Wed May 25 11:08:39 2011
cycles: 88000  inst.: 212716 (ipc= 2.4) sim_rate=1456 (inst/sec) elapsed = 0:0:02:26 / Wed May 25 11:08:41 2011
cycles: 89000  inst.: 214547 (ipc= 2.4) sim_rate=1459 (inst/sec) elapsed = 0:0:02:27 / Wed May 25 11:08:42 2011
cycles: 90000  inst.: 216091 (ipc= 2.4) sim_rate=1450 (inst/sec) elapsed = 0:0:02:29 / Wed May 25 11:08:44 2011
cycles: 91000  inst.: 217762 (ipc= 2.4) sim_rate=1451 (inst/sec) elapsed = 0:0:02:30 / Wed May 25 11:08:45 2011
cycles: 92000  inst.: 219657 (ipc= 2.4) sim_rate=1445 (inst/sec) elapsed = 0:0:02:32 / Wed May 25 11:08:47 2011
cycles: 93000  inst.: 221553 (ipc= 2.4) sim_rate=1438 (inst/sec) elapsed = 0:0:02:34 / Wed May 25 11:08:49 2011
cycles: 94000  inst.: 223448 (ipc= 2.4) sim_rate=1432 (inst/sec) elapsed = 0:0:02:36 / Wed May 25 11:08:51 2011
cycles: 95000  inst.: 225344 (ipc= 2.4) sim_rate=1435 (inst/sec) elapsed = 0:0:02:37 / Wed May 25 11:08:52 2011
cycles: 96000  inst.: 227239 (ipc= 2.4) sim_rate=1429 (inst/sec) elapsed = 0:0:02:39 / Wed May 25 11:08:54 2011
cycles: 97000  inst.: 229134 (ipc= 2.4) sim_rate=1432 (inst/sec) elapsed = 0:0:02:40 / Wed May 25 11:08:55 2011
cycles: 98000  inst.: 231030 (ipc= 2.4) sim_rate=1426 (inst/sec) elapsed = 0:0:02:42 / Wed May 25 11:08:57 2011
cycles: 99000  inst.: 232861 (ipc= 2.4) sim_rate=1419 (inst/sec) elapsed = 0:0:02:44 / Wed May 25 11:08:59 2011
cycles: 100000  inst.: 235461 (ipc= 2.4) sim_rate=1418 (inst/sec) elapsed = 0:0:02:46 / Wed May 25 11:09:01 2011
cycles: 101000  inst.: 237100 (ipc= 2.3) sim_rate=1419 (inst/sec) elapsed = 0:0:02:47 / Wed May 25 11:09:02 2011
cycles: 102000  inst.: 238803 (ipc= 2.3) sim_rate=1413 (inst/sec) elapsed = 0:0:02:49 / Wed May 25 11:09:04 2011
cycles: 103000  inst.: 240731 (ipc= 2.3) sim_rate=1416 (inst/sec) elapsed = 0:0:02:50 / Wed May 25 11:09:05 2011
cycles: 104000  inst.: 242274 (ipc= 2.3) sim_rate=1408 (inst/sec) elapsed = 0:0:02:52 / Wed May 25 11:09:07 2011
cycles: 105000  inst.: 243465 (ipc= 2.3) sim_rate=1407 (inst/sec) elapsed = 0:0:02:53 / Wed May 25 11:09:08 2011
cycles: 106000  inst.: 245425 (ipc= 2.3) sim_rate=1402 (inst/sec) elapsed = 0:0:02:55 / Wed May 25 11:09:10 2011
cycles: 107000  inst.: 247320 (ipc= 2.3) sim_rate=1405 (inst/sec) elapsed = 0:0:02:56 / Wed May 25 11:09:11 2011
cycles: 108000  inst.: 249216 (ipc= 2.3) sim_rate=1400 (inst/sec) elapsed = 0:0:02:58 / Wed May 25 11:09:13 2011
cycles: 109000  inst.: 251111 (ipc= 2.3) sim_rate=1395 (inst/sec) elapsed = 0:0:03:00 / Wed May 25 11:09:15 2011
cycles: 110000  inst.: 253006 (ipc= 2.3) sim_rate=1390 (inst/sec) elapsed = 0:0:03:02 / Wed May 25 11:09:17 2011
cycles: 111000  inst.: 254902 (ipc= 2.3) sim_rate=1385 (inst/sec) elapsed = 0:0:03:04 / Wed May 25 11:09:19 2011
cycles: 112000  inst.: 256797 (ipc= 2.3) sim_rate=1380 (inst/sec) elapsed = 0:0:03:06 / Wed May 25 11:09:21 2011
cycles: 113000  inst.: 258693 (ipc= 2.3) sim_rate=1383 (inst/sec) elapsed = 0:0:03:07 / Wed May 25 11:09:22 2011
cycles: 114000  inst.: 260588 (ipc= 2.3) sim_rate=1378 (inst/sec) elapsed = 0:0:03:09 / Wed May 25 11:09:24 2011
cycles: 115000  inst.: 262419 (ipc= 2.3) sim_rate=1373 (inst/sec) elapsed = 0:0:03:11 / Wed May 25 11:09:26 2011
cycles: 116000  inst.: 263963 (ipc= 2.3) sim_rate=1374 (inst/sec) elapsed = 0:0:03:12 / Wed May 25 11:09:27 2011
cycles: 117000  inst.: 265570 (ipc= 2.3) sim_rate=1368 (inst/sec) elapsed = 0:0:03:14 / Wed May 25 11:09:29 2011
cycles: 118000  inst.: 267401 (ipc= 2.3) sim_rate=1371 (inst/sec) elapsed = 0:0:03:15 / Wed May 25 11:09:30 2011
cycles: 119000  inst.: 269105 (ipc= 2.3) sim_rate=1366 (inst/sec) elapsed = 0:0:03:17 / Wed May 25 11:09:32 2011
cycles: 120000  inst.: 270808 (ipc= 2.3) sim_rate=1360 (inst/sec) elapsed = 0:0:03:19 / Wed May 25 11:09:34 2011
cycles: 121000  inst.: 272896 (ipc= 2.3) sim_rate=1364 (inst/sec) elapsed = 0:0:03:20 / Wed May 25 11:09:35 2011
cycles: 122000  inst.: 274407 (ipc= 2.2) sim_rate=1358 (inst/sec) elapsed = 0:0:03:22 / Wed May 25 11:09:37 2011
cycles: 123000  inst.: 276110 (ipc= 2.2) sim_rate=1360 (inst/sec) elapsed = 0:0:03:23 / Wed May 25 11:09:38 2011
cycles: 124000  inst.: 277622 (ipc= 2.2) sim_rate=1354 (inst/sec) elapsed = 0:0:03:25 / Wed May 25 11:09:40 2011
cycles: 125000  inst.: 279517 (ipc= 2.2) sim_rate=1356 (inst/sec) elapsed = 0:0:03:26 / Wed May 25 11:09:41 2011
cycles: 126000  inst.: 281413 (ipc= 2.2) sim_rate=1352 (inst/sec) elapsed = 0:0:03:28 / Wed May 25 11:09:43 2011
cycles: 127000  inst.: 283820 (ipc= 2.2) sim_rate=1351 (inst/sec) elapsed = 0:0:03:30 / Wed May 25 11:09:45 2011
cycles: 128000  inst.: 285907 (ipc= 2.2) sim_rate=1355 (inst/sec) elapsed = 0:0:03:31 / Wed May 25 11:09:46 2011
cycles: 129000  inst.: 287451 (ipc= 2.2) sim_rate=1349 (inst/sec) elapsed = 0:0:03:33 / Wed May 25 11:09:48 2011